
OS:Version,
  {1b9c9387-ff1f-49a8-895e-499d8597f5cc}, !- Handle
  3.2.1;                                  !- Version Identifier

OS:Building,
  {22746cef-a9f8-4b21-a90d-11cc82d2a82d}, !- Handle
  Building 1,                             !- Name
  ,                                       !- Building Sector Type
  90,                                     !- North Axis {deg}
  ,                                       !- Nominal Floor to Floor Height {m}
  ,                                       !- Space Type Name
  ,                                       !- Default Construction Set Name
  ,                                       !- Default Schedule Set Name
  2,                                      !- Standards Number of Stories
  2,                                      !- Standards Number of Above Ground Stories
  ,                                       !- Standards Template
  singlefamilydetached,                   !- Standards Building Type
  1;                                      !- Standards Number of Living Units

OS:Facility,
  {cf4f1c37-f17a-462c-9e6d-a40155bea9cb}; !- Handle

OS:Site,
  {7813b259-65f0-4adf-a94c-7db06238686d}, !- Handle
  Burlington International Ap_VT_USA,     !- Name
  44.47,                                  !- Latitude {deg}
  -73.15,                                 !- Longitude {deg}
  -5,                                     !- Time Zone {hr}
  101,                                    !- Elevation {m}
  Suburbs;                                !- Terrain

OS:SimulationControl,
  {74a636ef-2d5e-43f3-af5b-12e8caed568e}, !- Handle
  ,                                       !- Do Zone Sizing Calculation
  ,                                       !- Do System Sizing Calculation
  ,                                       !- Do Plant Sizing Calculation
  No;                                     !- Run Simulation for Sizing Periods

OS:Sizing:Parameters,
  {0cb6bb6a-9233-47af-8203-0327e39b182e}, !- Handle
  1.25,                                   !- Heating Sizing Factor
  1.15;                                   !- Cooling Sizing Factor

OS:Timestep,
  {b564fd6a-2c8f-4cab-8335-a195f4099153}, !- Handle
  4;                                      !- Number of Timesteps per Hour

OS:ShadowCalculation,
  {1bda1359-8fd6-4d72-9e17-03ea3bc81517}, !- Handle
  PolygonClipping,                        !- Shading Calculation Method
  ,                                       !- Shading Calculation Update Frequency Method
  20,                                     !- Shading Calculation Update Frequency
  200,                                    !- Maximum Figures in Shadow Overlap Calculations
  ,                                       !- Polygon Clipping Algorithm
  512,                                    !- Pixel Counting Resolution
  DetailedSkyDiffuseModeling,             !- Sky Diffuse Modeling Algorithm
  No,                                     !- Output External Shading Calculation Results
  No,                                     !- Disable Self-Shading Within Shading Zone Groups
  No;                                     !- Disable Self-Shading From Shading Zone Groups to Other Zones

OS:HeatBalanceAlgorithm,
  {2d475c7b-7550-4cdc-b4ed-7f4db51df54d}, !- Handle
  ConductionTransferFunction,             !- Algorithm
  200;                                    !- Surface Temperature Upper Limit {C}

OS:RunPeriod,
  {736a30ab-3ce8-4645-9213-c8e1d1dfbe9f}, !- Handle
  Run Period 1,                           !- Name
  1,                                      !- Begin Month
  1,                                      !- Begin Day of Month
  12,                                     !- End Month
  31,                                     !- End Day of Month
  ,                                       !- Use Weather File Holidays and Special Days
  ,                                       !- Use Weather File Daylight Saving Period
  ,                                       !- Apply Weekend Holiday Rule
  ,                                       !- Use Weather File Rain Indicators
  ,                                       !- Use Weather File Snow Indicators
  ;                                       !- Number of Times Runperiod to be Repeated

OS:LifeCycleCost:Parameters,
  {d8e0510b-788e-4822-8d8e-bdd2bf6a1cd2}, !- Handle
  ,                                       !- Analysis Type
  ,                                       !- Discounting Convention
  ,                                       !- Inflation Approach
  ,                                       !- Real Discount Rate
  ,                                       !- Nominal Discount Rate
  ,                                       !- Inflation
  ,                                       !- Base Date Month
  ,                                       !- Base Date Year
  ,                                       !- Service Date Month
  ,                                       !- Service Date Year
  ;                                       !- Length of Study Period in Years

OS:SurfaceConvectionAlgorithm:Outside,
  {05beb1ba-90f7-48b0-8535-58ed6df0f5b9}, !- Handle
  DOE-2;                                  !- Algorithm

OS:SurfaceConvectionAlgorithm:Inside,
  {4acb40ac-e5dd-49b5-b333-52038ba7e2ee}, !- Handle
  TARP;                                   !- Algorithm

OS:ZoneCapacitanceMultiplier:ResearchSpecial,
  {0d2ef868-e12f-4e87-ad25-9b6cade6a66f}, !- Handle
  ,                                       !- Temperature Capacity Multiplier
  15,                                     !- Humidity Capacity Multiplier
  ;                                       !- Carbon Dioxide Capacity Multiplier

OS:YearDescription,
  {df21fff1-c35a-4d06-82e3-d426993eca2e}, !- Handle
  2018,                                   !- Calendar Year
  ,                                       !- Day of Week for Start Day
  ;                                       !- Is Leap Year

OS:AdditionalProperties,
  {4a21dd86-972b-40c7-b628-d8fe934bda43}, !- Handle
  {22746cef-a9f8-4b21-a90d-11cc82d2a82d}, !- Object Name
  Building ID,                            !- Feature Name 1
  Integer,                                !- Feature Data Type 1
  199613,                                 !- Feature Value 1
  num_occupants,                          !- Feature Name 2
  Integer,                                !- Feature Data Type 2
  2,                                      !- Feature Value 2
  Schedules Path,                         !- Feature Name 3
  String,                                 !- Feature Data Type 3
  /var/simdata/openstudio/run/schedules.csv, !- Feature Value 3
  Total Units Modeled,                    !- Feature Name 4
  Integer,                                !- Feature Data Type 4
  1,                                      !- Feature Value 4
  has_water_heater_flue,                  !- Feature Name 5
  Boolean,                                !- Feature Data Type 5
  false,                                  !- Feature Value 5
  has_hvac_flue,                          !- Feature Name 6
  Boolean,                                !- Feature Data Type 6
  false,                                  !- Feature Value 6
  has_fireplace_chimney,                  !- Feature Name 7
  Boolean,                                !- Feature Data Type 7
  false;                                  !- Feature Value 7

OS:WeatherFile,
  {0efc721b-428b-47dd-b918-83972ab8e3ee}, !- Handle
  Burlington International Ap,            !- City
  VT,                                     !- State Province Region
  USA,                                    !- Country
  TMY3,                                   !- Data Source
  726170,                                 !- WMO Number
  44.47,                                  !- Latitude {deg}
  -73.15,                                 !- Longitude {deg}
  -5,                                     !- Time Zone {hr}
  101,                                    !- Elevation {m}
  /weather/G5000070.epw,                  !- Url
  628C5698;                               !- Checksum

OS:AdditionalProperties,
  {ce59b75a-92bb-4048-b90c-7ff51e242d5a}, !- Handle
  {0efc721b-428b-47dd-b918-83972ab8e3ee}, !- Object Name
  EPWHeaderCity,                          !- Feature Name 1
  String,                                 !- Feature Data Type 1
  Burlington International Ap,            !- Feature Value 1
  EPWHeaderState,                         !- Feature Name 2
  String,                                 !- Feature Data Type 2
  VT,                                     !- Feature Value 2
  EPWHeaderCountry,                       !- Feature Name 3
  String,                                 !- Feature Data Type 3
  USA,                                    !- Feature Value 3
  EPWHeaderDataSource,                    !- Feature Name 4
  String,                                 !- Feature Data Type 4
  TMY3,                                   !- Feature Value 4
  EPWHeaderStation,                       !- Feature Name 5
  String,                                 !- Feature Data Type 5
  726170,                                 !- Feature Value 5
  EPWHeaderLatitude,                      !- Feature Name 6
  Double,                                 !- Feature Data Type 6
  44.469999999999999,                     !- Feature Value 6
  EPWHeaderLongitude,                     !- Feature Name 7
  Double,                                 !- Feature Data Type 7
  -73.150000000000006,                    !- Feature Value 7
  EPWHeaderTimezone,                      !- Feature Name 8
  Double,                                 !- Feature Data Type 8
  -5,                                     !- Feature Value 8
  EPWHeaderAltitude,                      !- Feature Name 9
  Double,                                 !- Feature Data Type 9
  331.36482939632543,                     !- Feature Value 9
  EPWHeaderLocalPressure,                 !- Feature Name 10
  Double,                                 !- Feature Data Type 10
  0.98787982255594464,                    !- Feature Value 10
  EPWHeaderRecordsPerHour,                !- Feature Name 11
  Double,                                 !- Feature Data Type 11
  1,                                      !- Feature Value 11
  EPWDataAnnualAvgDrybulb,                !- Feature Name 12
  Double,                                 !- Feature Data Type 12
  46.159054794520515,                     !- Feature Value 12
  EPWDataAnnualMinDrybulb,                !- Feature Name 13
  Double,                                 !- Feature Data Type 13
  -18.039999999999999,                    !- Feature Value 13
  EPWDataAnnualMaxDrybulb,                !- Feature Name 14
  Double,                                 !- Feature Data Type 14
  98.960000000000008,                     !- Feature Value 14
  EPWDataCDD50F,                          !- Feature Name 15
  Double,                                 !- Feature Data Type 15
  2312.4525000000003,                     !- Feature Value 15
  EPWDataCDD65F,                          !- Feature Name 16
  Double,                                 !- Feature Data Type 16
  421.72500000000031,                     !- Feature Value 16
  EPWDataHDD50F,                          !- Feature Name 17
  Double,                                 !- Feature Data Type 17
  3714.3974999999978,                     !- Feature Value 17
  EPWDataHDD65F,                          !- Feature Name 18
  Double,                                 !- Feature Data Type 18
  7298.6700000000001,                     !- Feature Value 18
  EPWDataAnnualAvgWindspeed,              !- Feature Name 19
  Double,                                 !- Feature Data Type 19
  4.2093721461184028,                     !- Feature Value 19
  EPWDataMonthlyAvgDrybulbs,              !- Feature Name 20
  String,                                 !- Feature Data Type 20
  19.007096774193542&#4421.939553571428576&#4431.09637096774194&#4446.09875&#4456.87459677419351&#4466.70225000000002&#4469.90112903225807&#4467.61096774193553&#4459.15749999999998&#4447.586693548387096&#4437.000249999999994&#4429.37427419354839, !- Feature Value 20
  EPWDataGroundMonthlyTemps,              !- Feature Name 21
  String,                                 !- Feature Data Type 21
  36.935898785308154&#4433.04339899072181&#4432.7316736478366&#4434.578863693096196&#4441.99430238960366&#4449.375196826868034&#4455.774037837617186&#4459.82754624163937&#4460.17191404490012&#4456.87506626000578&#4450.6393994518848&#4443.48492079304418, !- Feature Value 21
  EPWDataWSF,                             !- Feature Name 22
  Double,                                 !- Feature Data Type 22
  0.60999999999999999,                    !- Feature Value 22
  EPWDataMonthlyAvgDailyHighDrybulbs,     !- Feature Name 23
  String,                                 !- Feature Data Type 23
  26.303870967741936&#4430.174285714285713&#4438.288387096774194&#4455.436&#4466.18838709677418&#4475.73399999999998&#4479.5083870967742&#4476.93612903225807&#4466.38&#4455.527741935483874&#4442.47&#4435.303870967741936, !- Feature Value 23
  EPWDataMonthlyAvgDailyLowDrybulbs,      !- Feature Name 24
  String,                                 !- Feature Data Type 24
  10.051612903225806&#4411.89142857142857&#4423.412258064516127&#4435.102000000000004&#4446.16193548387097&#4456.300000000000004&#4459.25548387096774&#4458.0883870967742&#4451.836&#4438.329032258064515&#4431.022&#4422.181290322580644, !- Feature Value 24
  EPWDesignHeatingDrybulb,                !- Feature Name 25
  Double,                                 !- Feature Data Type 25
  -3.4600000000000009,                    !- Feature Value 25
  EPWDesignHeatingWindspeed,              !- Feature Name 26
  Double,                                 !- Feature Data Type 26
  11.5,                                   !- Feature Value 26
  EPWDesignCoolingDrybulb,                !- Feature Name 27
  Double,                                 !- Feature Data Type 27
  85.280000000000001,                     !- Feature Value 27
  EPWDesignCoolingWetbulb,                !- Feature Name 28
  Double,                                 !- Feature Data Type 28
  69.620000000000005,                     !- Feature Value 28
  EPWDesignCoolingHumidityRatio,          !- Feature Name 29
  Double,                                 !- Feature Data Type 29
  0.011971942596874259,                   !- Feature Value 29
  EPWDesignCoolingWindspeed,              !- Feature Name 30
  Double,                                 !- Feature Data Type 30
  4.5,                                    !- Feature Value 30
  EPWDesignDailyTemperatureRange,         !- Feature Name 31
  Double,                                 !- Feature Data Type 31
  19.259999999999998,                     !- Feature Value 31
  EPWDesignDehumidDrybulb,                !- Feature Name 32
  Double,                                 !- Feature Data Type 32
  75.560000000000002,                     !- Feature Value 32
  EPWDesignDehumidHumidityRatio,          !- Feature Name 33
  Double,                                 !- Feature Data Type 33
  0.014690657683993896,                   !- Feature Value 33
  EPWDesignCoolingDirectNormal,           !- Feature Name 34
  Double,                                 !- Feature Data Type 34
  818,                                    !- Feature Value 34
  EPWDesignCoolingDiffuseHorizontal,      !- Feature Name 35
  Double,                                 !- Feature Data Type 35
  243;                                    !- Feature Value 35

OS:ClimateZones,
  {f33e7691-3ae5-4aca-be20-c54b27057c2f}, !- Handle
  Building America,                       !- Climate Zone Institution Name 1
  ,                                       !- Climate Zone Document Name 1
  0,                                      !- Climate Zone Document Year 1
  Cold;                                   !- Climate Zone Value 1

OS:Site:WaterMainsTemperature,
  {2fec8024-e3b7-46f2-aa7f-2051642e1e63}, !- Handle
  Correlation,                            !- Calculation Method
  ,                                       !- Temperature Schedule Name
  7.8661415525114,                        !- Annual Average Outdoor Air Temperature {C}
  28.2744623655914;                       !- Maximum Difference In Monthly Average Outdoor Air Temperatures {deltaC}

OS:RunPeriodControl:DaylightSavingTime,
  {c181118a-ab5c-4fc9-b781-3d0c31cbbadd}, !- Handle
  3/10,                                   !- Start Date
  11/3;                                   !- End Date

OS:Site:GroundTemperature:Deep,
  {acc21083-385d-4faa-b493-7e1a677ee26e}, !- Handle
  7.8661415525114,                        !- January Deep Ground Temperature {C}
  7.8661415525114,                        !- February Deep Ground Temperature {C}
  7.8661415525114,                        !- March Deep Ground Temperature {C}
  7.8661415525114,                        !- April Deep Ground Temperature {C}
  7.8661415525114,                        !- May Deep Ground Temperature {C}
  7.8661415525114,                        !- June Deep Ground Temperature {C}
  7.8661415525114,                        !- July Deep Ground Temperature {C}
  7.8661415525114,                        !- August Deep Ground Temperature {C}
  7.8661415525114,                        !- September Deep Ground Temperature {C}
  7.8661415525114,                        !- October Deep Ground Temperature {C}
  7.8661415525114,                        !- November Deep Ground Temperature {C}
  7.8661415525114;                        !- December Deep Ground Temperature {C}

OS:ThermalZone,
  {53882945-198e-43d0-a728-8c09a5efd5d0}, !- Handle
  living zone,                            !- Name
  ,                                       !- Multiplier
  ,                                       !- Ceiling Height {m}
  ,                                       !- Volume {m3}
  ,                                       !- Floor Area {m2}
  ,                                       !- Zone Inside Convection Algorithm
  ,                                       !- Zone Outside Convection Algorithm
  ,                                       !- Zone Conditioning Equipment List Name
  {67ed9046-1d61-4a49-aa19-432cf0796d13}, !- Zone Air Inlet Port List
  {c35e0589-768f-4698-8eb3-9850e357d4b9}, !- Zone Air Exhaust Port List
  {d073f5e7-9d43-4334-8074-199d6516a38b}, !- Zone Air Node Name
  {59e5caac-9aef-42f3-8784-673dcd2fd085}, !- Zone Return Air Port List
  ,                                       !- Primary Daylighting Control Name
  ,                                       !- Fraction of Zone Controlled by Primary Daylighting Control
  ,                                       !- Secondary Daylighting Control Name
  ,                                       !- Fraction of Zone Controlled by Secondary Daylighting Control
  ,                                       !- Illuminance Map Name
  ,                                       !- Group Rendering Name
  {9f102943-e23c-45a0-8baa-9a46a4ac080e}, !- Thermostat Name
  No;                                     !- Use Ideal Air Loads

OS:Node,
  {2cd8685b-68ed-4eb4-be67-876a92fe8122}, !- Handle
  Node 1,                                 !- Name
  {d073f5e7-9d43-4334-8074-199d6516a38b}, !- Inlet Port
  ;                                       !- Outlet Port

OS:Connection,
  {d073f5e7-9d43-4334-8074-199d6516a38b}, !- Handle
  {53882945-198e-43d0-a728-8c09a5efd5d0}, !- Source Object
  11,                                     !- Outlet Port
  {2cd8685b-68ed-4eb4-be67-876a92fe8122}, !- Target Object
  2;                                      !- Inlet Port

OS:PortList,
  {67ed9046-1d61-4a49-aa19-432cf0796d13}, !- Handle
  {53882945-198e-43d0-a728-8c09a5efd5d0}, !- HVAC Component
  {9798c33d-87d2-4d1a-a203-ed4fe8638bd9}; !- Port 1

OS:PortList,
  {c35e0589-768f-4698-8eb3-9850e357d4b9}, !- Handle
  {53882945-198e-43d0-a728-8c09a5efd5d0}, !- HVAC Component
  {2cec0f1f-718b-4279-a213-f00ded479afe}; !- Port 1

OS:PortList,
  {59e5caac-9aef-42f3-8784-673dcd2fd085}, !- Handle
  {53882945-198e-43d0-a728-8c09a5efd5d0}; !- HVAC Component

OS:Sizing:Zone,
  {b923c831-d009-41fb-ac77-9fa353c61aeb}, !- Handle
  {53882945-198e-43d0-a728-8c09a5efd5d0}, !- Zone or ZoneList Name
  SupplyAirTemperature,                   !- Zone Cooling Design Supply Air Temperature Input Method
  14,                                     !- Zone Cooling Design Supply Air Temperature {C}
  11.11,                                  !- Zone Cooling Design Supply Air Temperature Difference {deltaC}
  SupplyAirTemperature,                   !- Zone Heating Design Supply Air Temperature Input Method
  40,                                     !- Zone Heating Design Supply Air Temperature {C}
  11.11,                                  !- Zone Heating Design Supply Air Temperature Difference {deltaC}
  0.0085,                                 !- Zone Cooling Design Supply Air Humidity Ratio {kg-H2O/kg-air}
  0.008,                                  !- Zone Heating Design Supply Air Humidity Ratio {kg-H2O/kg-air}
  ,                                       !- Zone Heating Sizing Factor
  ,                                       !- Zone Cooling Sizing Factor
  DesignDay,                              !- Cooling Design Air Flow Method
  ,                                       !- Cooling Design Air Flow Rate {m3/s}
  ,                                       !- Cooling Minimum Air Flow per Zone Floor Area {m3/s-m2}
  ,                                       !- Cooling Minimum Air Flow {m3/s}
  ,                                       !- Cooling Minimum Air Flow Fraction
  DesignDay,                              !- Heating Design Air Flow Method
  ,                                       !- Heating Design Air Flow Rate {m3/s}
  ,                                       !- Heating Maximum Air Flow per Zone Floor Area {m3/s-m2}
  ,                                       !- Heating Maximum Air Flow {m3/s}
  ,                                       !- Heating Maximum Air Flow Fraction
  No,                                     !- Account for Dedicated Outdoor Air System
  NeutralSupplyAir,                       !- Dedicated Outdoor Air System Control Strategy
  autosize,                               !- Dedicated Outdoor Air Low Setpoint Temperature for Design {C}
  autosize;                               !- Dedicated Outdoor Air High Setpoint Temperature for Design {C}

OS:ZoneHVAC:EquipmentList,
  {7b01fb00-4e3b-4d1e-97b5-3e322448c404}, !- Handle
  Zone HVAC Equipment List 1,             !- Name
  {53882945-198e-43d0-a728-8c09a5efd5d0}, !- Thermal Zone
  SequentialLoad,                         !- Load Distribution Scheme
  {adc0624d-db7e-4b72-a7fe-27aecefffb3f}, !- Zone Equipment 1
  1,                                      !- Zone Equipment Cooling Sequence 1
  1,                                      !- Zone Equipment Heating or No-Load Sequence 1
  ,                                       !- Zone Equipment Sequential Cooling Fraction Schedule Name 1
  ;                                       !- Zone Equipment Sequential Heating Fraction Schedule Name 1

OS:Space,
  {c1f0ee17-0467-4cce-a031-d3a802cb31fc}, !- Handle
  living space,                           !- Name
  {546e9599-35b5-4d40-869d-c52a9f2fb73b}, !- Space Type Name
  ,                                       !- Default Construction Set Name
  ,                                       !- Default Schedule Set Name
  -0,                                     !- Direction of Relative North {deg}
  0,                                      !- X Origin {m}
  0,                                      !- Y Origin {m}
  1.2192,                                 !- Z Origin {m}
  ,                                       !- Building Story Name
  {53882945-198e-43d0-a728-8c09a5efd5d0}, !- Thermal Zone Name
  ,                                       !- Part of Total Floor Area
  ,                                       !- Design Specification Outdoor Air Object Name
  {9648eb7a-4b9c-464c-baf9-0de960cba547}; !- Building Unit Name

OS:Surface,
  {6c96e1d3-ad4a-495c-aacb-65fbe8baab47}, !- Handle
  Surface 1,                              !- Name
  Floor,                                  !- Surface Type
  {6145b982-d8b9-4b03-ab66-85344d8d1565}, !- Construction Name
  {c1f0ee17-0467-4cce-a031-d3a802cb31fc}, !- Space Name
  Surface,                                !- Outside Boundary Condition
  {72c37b5e-18b8-4456-8279-f112c79c53d3}, !- Outside Boundary Condition Object
  NoSun,                                  !- Sun Exposure
  NoWind,                                 !- Wind Exposure
  ,                                       !- View Factor to Ground
  ,                                       !- Number of Vertices
  0, 0, 0,                                !- X,Y,Z Vertex 1 {m}
  0, 9.22967639736085, 0,                 !- X,Y,Z Vertex 2 {m}
  16.6134175152495, 9.22967639736085, 0,  !- X,Y,Z Vertex 3 {m}
  16.6134175152495, 0, 0;                 !- X,Y,Z Vertex 4 {m}

OS:Surface,
  {670edc83-86db-45d8-8477-f386c081fcca}, !- Handle
  Surface 2,                              !- Name
  Wall,                                   !- Surface Type
  {72561a70-6583-473f-aa27-c706eca96b0c}, !- Construction Name
  {c1f0ee17-0467-4cce-a031-d3a802cb31fc}, !- Space Name
  Outdoors,                               !- Outside Boundary Condition
  ,                                       !- Outside Boundary Condition Object
  SunExposed,                             !- Sun Exposure
  WindExposed,                            !- Wind Exposure
  ,                                       !- View Factor to Ground
  ,                                       !- Number of Vertices
  0, 9.22967639736085, 2.4384,            !- X,Y,Z Vertex 1 {m}
  0, 9.22967639736085, 0,                 !- X,Y,Z Vertex 2 {m}
  0, 0, 0,                                !- X,Y,Z Vertex 3 {m}
  0, 0, 2.4384;                           !- X,Y,Z Vertex 4 {m}

OS:Surface,
  {a073e425-f538-4335-b4d0-9b60f58c3e14}, !- Handle
  Surface 3,                              !- Name
  Wall,                                   !- Surface Type
  {72561a70-6583-473f-aa27-c706eca96b0c}, !- Construction Name
  {c1f0ee17-0467-4cce-a031-d3a802cb31fc}, !- Space Name
  Outdoors,                               !- Outside Boundary Condition
  ,                                       !- Outside Boundary Condition Object
  SunExposed,                             !- Sun Exposure
  WindExposed,                            !- Wind Exposure
  ,                                       !- View Factor to Ground
  ,                                       !- Number of Vertices
  16.6134175152495, 9.22967639736085, 2.4384, !- X,Y,Z Vertex 1 {m}
  16.6134175152495, 9.22967639736085, 0,  !- X,Y,Z Vertex 2 {m}
  0, 9.22967639736085, 0,                 !- X,Y,Z Vertex 3 {m}
  0, 9.22967639736085, 2.4384;            !- X,Y,Z Vertex 4 {m}

OS:Surface,
  {9540d79c-19c8-4744-868e-95381701910c}, !- Handle
  Surface 4,                              !- Name
  Wall,                                   !- Surface Type
  {72561a70-6583-473f-aa27-c706eca96b0c}, !- Construction Name
  {c1f0ee17-0467-4cce-a031-d3a802cb31fc}, !- Space Name
  Outdoors,                               !- Outside Boundary Condition
  ,                                       !- Outside Boundary Condition Object
  SunExposed,                             !- Sun Exposure
  WindExposed,                            !- Wind Exposure
  ,                                       !- View Factor to Ground
  ,                                       !- Number of Vertices
  16.6134175152495, 0, 2.4384,            !- X,Y,Z Vertex 1 {m}
  16.6134175152495, 0, 0,                 !- X,Y,Z Vertex 2 {m}
  16.6134175152495, 9.22967639736085, 0,  !- X,Y,Z Vertex 3 {m}
  16.6134175152495, 9.22967639736085, 2.4384; !- X,Y,Z Vertex 4 {m}

OS:Surface,
  {e8900c1f-4abb-4771-8a1a-57c9a88f853c}, !- Handle
  Surface 5,                              !- Name
  Wall,                                   !- Surface Type
  {72561a70-6583-473f-aa27-c706eca96b0c}, !- Construction Name
  {c1f0ee17-0467-4cce-a031-d3a802cb31fc}, !- Space Name
  Outdoors,                               !- Outside Boundary Condition
  ,                                       !- Outside Boundary Condition Object
  SunExposed,                             !- Sun Exposure
  WindExposed,                            !- Wind Exposure
  ,                                       !- View Factor to Ground
  ,                                       !- Number of Vertices
  1.04865714285714, 0, 2.54287005230225e-07, !- X,Y,Z Vertex 1 {m}
  16.6134175152495, 0, 0,                 !- X,Y,Z Vertex 2 {m}
  16.6134175152495, 0, 2.4384,            !- X,Y,Z Vertex 3 {m}
  1.04865714285714, 0, 2.43839974571299;  !- X,Y,Z Vertex 4 {m}

OS:Surface,
  {ebda5629-fe3b-4603-8687-d0a10393464e}, !- Handle
  Surface 6,                              !- Name
  RoofCeiling,                            !- Surface Type
  {559d0c30-b3c5-4dd5-8c6e-04d481426427}, !- Construction Name
  {c1f0ee17-0467-4cce-a031-d3a802cb31fc}, !- Space Name
  Surface,                                !- Outside Boundary Condition
  {f79be576-9bc5-4885-a5c1-c45e5db0f84e}, !- Outside Boundary Condition Object
  NoSun,                                  !- Sun Exposure
  NoWind,                                 !- Wind Exposure
  ,                                       !- View Factor to Ground
  ,                                       !- Number of Vertices
  16.6134175152495, 0, 2.4384,            !- X,Y,Z Vertex 1 {m}
  16.6134175152495, 9.22967639736085, 2.4384, !- X,Y,Z Vertex 2 {m}
  0, 9.22967639736085, 2.4384,            !- X,Y,Z Vertex 3 {m}
  0, 0, 2.4384;                           !- X,Y,Z Vertex 4 {m}

OS:SpaceType,
  {546e9599-35b5-4d40-869d-c52a9f2fb73b}, !- Handle
  Space Type 1,                           !- Name
  ,                                       !- Default Construction Set Name
  ,                                       !- Default Schedule Set Name