
OS:Version,
  {6f2e08bd-d23b-4392-86d9-d25152b47d40}, !- Handle
  3.2.1;                                  !- Version Identifier

OS:Building,
  {68edcdc9-c98c-45f4-9d21-c58d336f4070}, !- Handle
  Building 1,                             !- Name
  ,                                       !- Building Sector Type
  225,                                    !- North Axis {deg}
  ,                                       !- Nominal Floor to Floor Height {m}
  ,                                       !- Space Type Name
  ,                                       !- Default Construction Set Name
  ,                                       !- Default Schedule Set Name
  1,                                      !- Standards Number of Stories
  1,                                      !- Standards Number of Above Ground Stories
  ,                                       !- Standards Template
  singlefamilydetached,                   !- Standards Building Type
  1;                                      !- Standards Number of Living Units

OS:Facility,
  {7fe3ed72-ed67-4a28-92a7-e65b1ea8b8e8}; !- Handle

OS:Site,
  {e33efa0a-f4a4-4ee3-adb1-5bc3668b9058}, !- Handle
  Burlington International Ap_VT_USA,     !- Name
  44.47,                                  !- Latitude {deg}
  -73.15,                                 !- Longitude {deg}
  -5,                                     !- Time Zone {hr}
  101,                                    !- Elevation {m}
  Suburbs;                                !- Terrain

OS:SimulationControl,
  {48ca6f89-8b02-4bb2-92a7-4e95a8f52a5f}, !- Handle
  ,                                       !- Do Zone Sizing Calculation
  ,                                       !- Do System Sizing Calculation
  ,                                       !- Do Plant Sizing Calculation
  No;                                     !- Run Simulation for Sizing Periods

OS:Sizing:Parameters,
  {9995671d-8a91-4c2f-8a7d-315e433a7c08}, !- Handle
  1.25,                                   !- Heating Sizing Factor
  1.15;                                   !- Cooling Sizing Factor

OS:Timestep,
  {b28d0613-6e57-462c-ab07-397665189c1f}, !- Handle
  4;                                      !- Number of Timesteps per Hour

OS:ShadowCalculation,
  {0fade207-b54f-4101-94bb-89b9e2f49585}, !- Handle
  PolygonClipping,                        !- Shading Calculation Method
  ,                                       !- Shading Calculation Update Frequency Method
  20,                                     !- Shading Calculation Update Frequency
  200,                                    !- Maximum Figures in Shadow Overlap Calculations
  ,                                       !- Polygon Clipping Algorithm
  512,                                    !- Pixel Counting Resolution
  DetailedSkyDiffuseModeling,             !- Sky Diffuse Modeling Algorithm
  No,                                     !- Output External Shading Calculation Results
  No,                                     !- Disable Self-Shading Within Shading Zone Groups
  No;                                     !- Disable Self-Shading From Shading Zone Groups to Other Zones

OS:HeatBalanceAlgorithm,
  {67cb9f01-3e48-49b8-bbd3-c6f69f1224a2}, !- Handle
  ConductionTransferFunction,             !- Algorithm
  200;                                    !- Surface Temperature Upper Limit {C}

OS:RunPeriod,
  {fc4bc421-ab1d-49bd-bd63-a7a524749571}, !- Handle
  Run Period 1,                           !- Name
  1,                                      !- Begin Month
  1,                                      !- Begin Day of Month
  12,                                     !- End Month
  31,                                     !- End Day of Month
  ,                                       !- Use Weather File Holidays and Special Days
  ,                                       !- Use Weather File Daylight Saving Period
  ,                                       !- Apply Weekend Holiday Rule
  ,                                       !- Use Weather File Rain Indicators
  ,                                       !- Use Weather File Snow Indicators
  ;                                       !- Number of Times Runperiod to be Repeated

OS:LifeCycleCost:Parameters,
  {3bb8e4e8-57d6-4900-a204-f8b2b8f64097}, !- Handle
  ,                                       !- Analysis Type
  ,                                       !- Discounting Convention
  ,                                       !- Inflation Approach
  ,                                       !- Real Discount Rate
  ,                                       !- Nominal Discount Rate
  ,                                       !- Inflation
  ,                                       !- Base Date Month
  ,                                       !- Base Date Year
  ,                                       !- Service Date Month
  ,                                       !- Service Date Year
  ;                                       !- Length of Study Period in Years

OS:SurfaceConvectionAlgorithm:Outside,
  {d32e72df-7cf8-4687-90dd-a6ef050bd4e5}, !- Handle
  DOE-2;                                  !- Algorithm

OS:SurfaceConvectionAlgorithm:Inside,
  {0829f1ba-4574-4207-8b32-834d5f32aa59}, !- Handle
  TARP;                                   !- Algorithm

OS:ZoneCapacitanceMultiplier:ResearchSpecial,
  {74147662-e691-4097-9b8a-b8d02f30b953}, !- Handle
  ,                                       !- Temperature Capacity Multiplier
  15,                                     !- Humidity Capacity Multiplier
  ;                                       !- Carbon Dioxide Capacity Multiplier

OS:YearDescription,
  {02d0a49e-d8a6-42a1-a4ee-b0fe90a2defc}, !- Handle
  2018,                                   !- Calendar Year
  ,                                       !- Day of Week for Start Day
  ;                                       !- Is Leap Year

OS:AdditionalProperties,
  {aaa5571e-64d1-48c9-971f-ffcffe526847}, !- Handle
  {68edcdc9-c98c-45f4-9d21-c58d336f4070}, !- Object Name
  Building ID,                            !- Feature Name 1
  Integer,                                !- Feature Data Type 1
  247942,                                 !- Feature Value 1
  num_occupants,                          !- Feature Name 2
  Integer,                                !- Feature Data Type 2
  3,                                      !- Feature Value 2
  Schedules Path,                         !- Feature Name 3
  String,                                 !- Feature Data Type 3
  /var/simdata/openstudio/run/schedules.csv, !- Feature Value 3
  Total Units Modeled,                    !- Feature Name 4
  Integer,                                !- Feature Data Type 4
  1,                                      !- Feature Value 4
  has_water_heater_flue,                  !- Feature Name 5
  Boolean,                                !- Feature Data Type 5
  false,                                  !- Feature Value 5
  has_fireplace_chimney,                  !- Feature Name 6
  Boolean,                                !- Feature Data Type 6
  false;                                  !- Feature Value 6

OS:WeatherFile,
  {d7a21d22-fda7-4999-8b44-a05ad29ecb9f}, !- Handle
  Burlington International Ap,            !- City
  VT,                                     !- State Province Region
  USA,                                    !- Country
  TMY3,                                   !- Data Source
  726170,                                 !- WMO Number
  44.47,                                  !- Latitude {deg}
  -73.15,                                 !- Longitude {deg}
  -5,                                     !- Time Zone {hr}
  101,                                    !- Elevation {m}
  /weather/G5000070.epw,                  !- Url
  628C5698;                               !- Checksum

OS:AdditionalProperties,
  {91c96e0a-daef-4d43-8361-a58d53fafc16}, !- Handle
  {d7a21d22-fda7-4999-8b44-a05ad29ecb9f}, !- Object Name
  EPWHeaderCity,                          !- Feature Name 1
  String,                                 !- Feature Data Type 1
  Burlington International Ap,            !- Feature Value 1
  EPWHeaderState,                         !- Feature Name 2
  String,                                 !- Feature Data Type 2
  VT,                                     !- Feature Value 2
  EPWHeaderCountry,                       !- Feature Name 3
  String,                                 !- Feature Data Type 3
  USA,                                    !- Feature Value 3
  EPWHeaderDataSource,                    !- Feature Name 4
  String,                                 !- Feature Data Type 4
  TMY3,                                   !- Feature Value 4
  EPWHeaderStation,                       !- Feature Name 5
  String,                                 !- Feature Data Type 5
  726170,                                 !- Feature Value 5
  EPWHeaderLatitude,                      !- Feature Name 6
  Double,                                 !- Feature Data Type 6
  44.469999999999999,                     !- Feature Value 6
  EPWHeaderLongitude,                     !- Feature Name 7
  Double,                                 !- Feature Data Type 7
  -73.150000000000006,                    !- Feature Value 7
  EPWHeaderTimezone,                      !- Feature Name 8
  Double,                                 !- Feature Data Type 8
  -5,                                     !- Feature Value 8
  EPWHeaderAltitude,                      !- Feature Name 9
  Double,                                 !- Feature Data Type 9
  331.36482939632543,                     !- Feature Value 9
  EPWHeaderLocalPressure,                 !- Feature Name 10
  Double,                                 !- Feature Data Type 10
  0.98787982255594464,                    !- Feature Value 10
  EPWHeaderRecordsPerHour,                !- Feature Name 11
  Double,                                 !- Feature Data Type 11
  1,                                      !- Feature Value 11
  EPWDataAnnualAvgDrybulb,                !- Feature Name 12
  Double,                                 !- Feature Data Type 12
  46.159054794520515,                     !- Feature Value 12
  EPWDataAnnualMinDrybulb,                !- Feature Name 13
  Double,                                 !- Feature Data Type 13
  -18.039999999999999,                    !- Feature Value 13
  EPWDataAnnualMaxDrybulb,                !- Feature Name 14
  Double,                                 !- Feature Data Type 14
  98.960000000000008,                     !- Feature Value 14
  EPWDataCDD50F,                          !- Feature Name 15
  Double,                                 !- Feature Data Type 15
  2312.4525000000003,                     !- Feature Value 15
  EPWDataCDD65F,                          !- Feature Name 16
  Double,                                 !- Feature Data Type 16
  421.72500000000031,                     !- Feature Value 16
  EPWDataHDD50F,                          !- Feature Name 17
  Double,                                 !- Feature Data Type 17
  3714.3974999999978,                     !- Feature Value 17
  EPWDataHDD65F,                          !- Feature Name 18
  Double,                                 !- Feature Data Type 18
  7298.6700000000001,                     !- Feature Value 18
  EPWDataAnnualAvgWindspeed,              !- Feature Name 19
  Double,                                 !- Feature Data Type 19
  4.2093721461184028,                     !- Feature Value 19
  EPWDataMonthlyAvgDrybulbs,              !- Feature Name 20
  String,                                 !- Feature Data Type 20
  19.007096774193542&#4421.939553571428576&#4431.09637096774194&#4446.09875&#4456.87459677419351&#4466.70225000000002&#4469.90112903225807&#4467.61096774193553&#4459.15749999999998&#4447.586693548387096&#4437.000249999999994&#4429.37427419354839, !- Feature Value 20
  EPWDataGroundMonthlyTemps,              !- Feature Name 21
  String,                                 !- Feature Data Type 21
  36.935898785308154&#4433.04339899072181&#4432.7316736478366&#4434.578863693096196&#4441.99430238960366&#4449.375196826868034&#4455.774037837617186&#4459.82754624163937&#4460.17191404490012&#4456.87506626000578&#4450.6393994518848&#4443.48492079304418, !- Feature Value 21
  EPWDataWSF,                             !- Feature Name 22
  Double,                                 !- Feature Data Type 22
  0.60999999999999999,                    !- Feature Value 22
  EPWDataMonthlyAvgDailyHighDrybulbs,     !- Feature Name 23
  String,                                 !- Feature Data Type 23
  26.303870967741936&#4430.174285714285713&#4438.288387096774194&#4455.436&#4466.18838709677418&#4475.73399999999998&#4479.5083870967742&#4476.93612903225807&#4466.38&#4455.527741935483874&#4442.47&#4435.303870967741936, !- Feature Value 23
  EPWDataMonthlyAvgDailyLowDrybulbs,      !- Feature Name 24
  String,                                 !- Feature Data Type 24
  10.051612903225806&#4411.89142857142857&#4423.412258064516127&#4435.102000000000004&#4446.16193548387097&#4456.300000000000004&#4459.25548387096774&#4458.0883870967742&#4451.836&#4438.329032258064515&#4431.022&#4422.181290322580644, !- Feature Value 24
  EPWDesignHeatingDrybulb,                !- Feature Name 25
  Double,                                 !- Feature Data Type 25
  -3.4600000000000009,                    !- Feature Value 25
  EPWDesignHeatingWindspeed,              !- Feature Name 26
  Double,                                 !- Feature Data Type 26
  11.5,                                   !- Feature Value 26
  EPWDesignCoolingDrybulb,                !- Feature Name 27
  Double,                                 !- Feature Data Type 27
  85.280000000000001,                     !- Feature Value 27
  EPWDesignCoolingWetbulb,                !- Feature Name 28
  Double,                                 !- Feature Data Type 28
  69.620000000000005,                     !- Feature Value 28
  EPWDesignCoolingHumidityRatio,          !- Feature Name 29
  Double,                                 !- Feature Data Type 29
  0.011971942596874259,                   !- Feature Value 29
  EPWDesignCoolingWindspeed,              !- Feature Name 30
  Double,                                 !- Feature Data Type 30
  4.5,                                    !- Feature Value 30
  EPWDesignDailyTemperatureRange,         !- Feature Name 31
  Double,                                 !- Feature Data Type 31
  19.259999999999998,                     !- Feature Value 31
  EPWDesignDehumidDrybulb,                !- Feature Name 32
  Double,                                 !- Feature Data Type 32
  75.560000000000002,                     !- Feature Value 32
  EPWDesignDehumidHumidityRatio,          !- Feature Name 33
  Double,                                 !- Feature Data Type 33
  0.014690657683993896,                   !- Feature Value 33
  EPWDesignCoolingDirectNormal,           !- Feature Name 34
  Double,                                 !- Feature Data Type 34
  818,                                    !- Feature Value 34
  EPWDesignCoolingDiffuseHorizontal,      !- Feature Name 35
  Double,                                 !- Feature Data Type 35
  243;                                    !- Feature Value 35

OS:ClimateZones,
  {6b4baf32-ea0c-4203-86a5-38e98018363b}, !- Handle
  Building America,                       !- Climate Zone Institution Name 1
  ,                                       !- Climate Zone Document Name 1
  0,                                      !- Climate Zone Document Year 1
  Cold;                                   !- Climate Zone Value 1

OS:Site:WaterMainsTemperature,
  {a0af0d84-2565-42d7-b649-6f1f0949ab80}, !- Handle
  Correlation,                            !- Calculation Method
  ,                                       !- Temperature Schedule Name
  7.8661415525114,                        !- Annual Average Outdoor Air Temperature {C}
  28.2744623655914;                       !- Maximum Difference In Monthly Average Outdoor Air Temperatures {deltaC}

OS:RunPeriodControl:DaylightSavingTime,
  {01e019f1-f423-406c-a8f3-706f617686a5}, !- Handle
  3/10,                                   !- Start Date
  11/3;                                   !- End Date

OS:Site:GroundTemperature:Deep,
  {54b9c7fc-6e28-4566-ba9a-6a1cd0285e8a}, !- Handle
  7.8661415525114,                        !- January Deep Ground Temperature {C}
  7.8661415525114,                        !- February Deep Ground Temperature {C}
  7.8661415525114,                        !- March Deep Ground Temperature {C}
  7.8661415525114,                        !- April Deep Ground Temperature {C}
  7.8661415525114,                        !- May Deep Ground Temperature {C}
  7.8661415525114,                        !- June Deep Ground Temperature {C}
  7.8661415525114,                        !- July Deep Ground Temperature {C}
  7.8661415525114,                        !- August Deep Ground Temperature {C}
  7.8661415525114,                        !- September Deep Ground Temperature {C}
  7.8661415525114,                        !- October Deep Ground Temperature {C}
  7.8661415525114,                        !- November Deep Ground Temperature {C}
  7.8661415525114;                        !- December Deep Ground Temperature {C}

OS:ThermalZone,
  {6ed9333c-3448-4954-aa1b-4b0d533e2feb}, !- Handle
  living zone,                            !- Name
  ,                                       !- Multiplier
  ,                                       !- Ceiling Height {m}
  ,                                       !- Volume {m3}
  ,                                       !- Floor Area {m2}
  ,                                       !- Zone Inside Convection Algorithm
  ,                                       !- Zone Outside Convection Algorithm
  ,                                       !- Zone Conditioning Equipment List Name
  {46a7fe29-a0b3-4fef-825b-7c75a32a869f}, !- Zone Air Inlet Port List
  {b6c735d4-9bd2-45a8-8dd2-bf18e6378cf1}, !- Zone Air Exhaust Port List
  {64f959f1-fae2-43dd-a72d-8003618004ea}, !- Zone Air Node Name
  {54eb98b0-d885-42cb-848e-8fd7f0e50451}, !- Zone Return Air Port List
  ,                                       !- Primary Daylighting Control Name
  ,                                       !- Fraction of Zone Controlled by Primary Daylighting Control
  ,                                       !- Secondary Daylighting Control Name
  ,                                       !- Fraction of Zone Controlled by Secondary Daylighting Control
  ,                                       !- Illuminance Map Name
  ,                                       !- Group Rendering Name
  {a9954f31-03c3-4383-9ca2-98072f837b3a}, !- Thermostat Name
  No;                                     !- Use Ideal Air Loads

OS:Node,
  {c712b6b6-5297-4419-b7e3-b9cdae297133}, !- Handle
  Node 1,                                 !- Name
  {64f959f1-fae2-43dd-a72d-8003618004ea}, !- Inlet Port
  ;                                       !- Outlet Port

OS:Connection,
  {64f959f1-fae2-43dd-a72d-8003618004ea}, !- Handle
  {6ed9333c-3448-4954-aa1b-4b0d533e2feb}, !- Source Object
  11,                                     !- Outlet Port
  {c712b6b6-5297-4419-b7e3-b9cdae297133}, !- Target Object
  2;                                      !- Inlet Port

OS:PortList,
  {46a7fe29-a0b3-4fef-825b-7c75a32a869f}, !- Handle
  {6ed9333c-3448-4954-aa1b-4b0d533e2feb}, !- HVAC Component
  {e862a323-d7ae-461d-a7a2-d02767119121}; !- Port 1

OS:PortList,
  {b6c735d4-9bd2-45a8-8dd2-bf18e6378cf1}, !- Handle
  {6ed9333c-3448-4954-aa1b-4b0d533e2feb}; !- HVAC Component

OS:PortList,
  {54eb98b0-d885-42cb-848e-8fd7f0e50451}, !- Handle
  {6ed9333c-3448-4954-aa1b-4b0d533e2feb}, !- HVAC Component
  {162eabfb-e6ae-4bc9-a68b-475cf650e4b9}; !- Port 1

OS:Sizing:Zone,
  {4047f328-2fab-4317-ad78-162860d55e08}, !- Handle
  {6ed9333c-3448-4954-aa1b-4b0d533e2feb}, !- Zone or ZoneList Name
  SupplyAirTemperature,                   !- Zone Cooling Design Supply Air Temperature Input Method
  14,                                     !- Zone Cooling Design Supply Air Temperature {C}
  11.11,                                  !- Zone Cooling Design Supply Air Temperature Difference {deltaC}
  SupplyAirTemperature,                   !- Zone Heating Design Supply Air Temperature Input Method
  40,                                     !- Zone Heating Design Supply Air Temperature {C}
  11.11,                                  !- Zone Heating Design Supply Air Temperature Difference {deltaC}
  0.0085,                                 !- Zone Cooling Design Supply Air Humidity Ratio {kg-H2O/kg-air}
  0.008,                                  !- Zone Heating Design Supply Air Humidity Ratio {kg-H2O/kg-air}
  ,                                       !- Zone Heating Sizing Factor
  ,                                       !- Zone Cooling Sizing Factor
  DesignDay,                              !- Cooling Design Air Flow Method
  ,                                       !- Cooling Design Air Flow Rate {m3/s}
  ,                                       !- Cooling Minimum Air Flow per Zone Floor Area {m3/s-m2}
  ,                                       !- Cooling Minimum Air Flow {m3/s}
  ,                                       !- Cooling Minimum Air Flow Fraction
  DesignDay,                              !- Heating Design Air Flow Method
  ,                                       !- Heating Design Air Flow Rate {m3/s}
  ,                                       !- Heating Maximum Air Flow per Zone Floor Area {m3/s-m2}
  ,                                       !- Heating Maximum Air Flow {m3/s}
  ,                                       !- Heating Maximum Air Flow Fraction
  No,                                     !- Account for Dedicated Outdoor Air System
  NeutralSupplyAir,                       !- Dedicated Outdoor Air System Control Strategy
  autosize,                               !- Dedicated Outdoor Air Low Setpoint Temperature for Design {C}
  autosize;                               !- Dedicated Outdoor Air High Setpoint Temperature for Design {C}

OS:ZoneHVAC:EquipmentList,
  {bedb0397-3c2b-4463-9bed-7c0e73465534}, !- Handle
  Zone HVAC Equipment List 1,             !- Name
  {6ed9333c-3448-4954-aa1b-4b0d533e2feb}, !- Thermal Zone
  SequentialLoad,                         !- Load Distribution Scheme
  {5fc9b8c3-25f6-4f12-838e-b7170aacac94}, !- Zone Equipment 1
  1,                                      !- Zone Equipment Cooling Sequence 1
  1,                                      !- Zone Equipment Heating or No-Load Sequence 1
  ,                                       !- Zone Equipment Sequential Cooling Fraction Schedule Name 1
  ;                                       !- Zone Equipment Sequential Heating Fraction Schedule Name 1

OS:Space,
  {3e206382-9b7a-4c98-88d2-0b5901b803f5}, !- Handle
  living space,                           !- Name
  {f5427d9a-1c91-40fe-a2b2-9f632017238f}, !- Space Type Name
  ,                                       !- Default Construction Set Name
  ,                                       !- Default Schedule Set Name
  -0,                                     !- Direction of Relative North {deg}
  0,                                      !- X Origin {m}
  0,                                      !- Y Origin {m}
  0,                                      !- Z Origin {m}
  ,                                       !- Building Story Name
  {6ed9333c-3448-4954-aa1b-4b0d533e2feb}, !- Thermal Zone Name
  ,                                       !- Part of Total Floor Area
  ,                                       !- Design Specification Outdoor Air Object Name
  {95a802dc-f716-4338-a8d0-d5280e602539}; !- Building Unit Name

OS:Surface,
  {816f5395-5b08-49db-8247-1c25911f3b83}, !- Handle
  Surface 1,                              !- Name
  Floor,                                  !- Surface Type
  {4acee2f9-10fa-498a-bf5c-30dff7f824ef}, !- Construction Name
  {3e206382-9b7a-4c98-88d2-0b5901b803f5}, !- Space Name
  Surface,                                !- Outside Boundary Condition
  {d0da6e66-81bf-4a29-ac7e-de74281af8ce}, !- Outside Boundary Condition Object
  NoSun,                                  !- Sun Exposure
  NoWind,                                 !- Wind Exposure
  ,                                       !- View Factor to Ground
  ,                                       !- Number of Vertices
  0, 0, 0,                                !- X,Y,Z Vertex 1 {m}
  0, 10.5976154298974, 0,                 !- X,Y,Z Vertex 2 {m}
  19.0757077738154, 10.5976154298974, 0,  !- X,Y,Z Vertex 3 {m}
  19.0757077738154, 0, 0;                 !- X,Y,Z Vertex 4 {m}

OS:Surface,
  {9008f236-b654-4009-9ff5-127b22a92854}, !- Handle
  Surface 2,                              !- Name
  Wall,                                   !- Surface Type
  {bde58a11-5cae-4009-9e96-ca1c84d6f32c}, !- Construction Name
  {3e206382-9b7a-4c98-88d2-0b5901b803f5}, !- Space Name
  Outdoors,                               !- Outside Boundary Condition
  ,                                       !- Outside Boundary Condition Object
  SunExposed,                             !- Sun Exposure
  WindExposed,                            !- Wind Exposure
  ,                                       !- View Factor to Ground
  ,                                       !- Number of Vertices
  0, 10.5976154298974, 2.4384,            !- X,Y,Z Vertex 1 {m}
  0, 10.5976154298974, 0,                 !- X,Y,Z Vertex 2 {m}
  0, 0, 0,                                !- X,Y,Z Vertex 3 {m}
  0, 0, 2.4384;                           !- X,Y,Z Vertex 4 {m}

OS:Surface,
  {1cc213c2-6849-4d2c-979f-29f8f0d635b1}, !- Handle
  Surface 3,                              !- Name
  Wall,                                   !- Surface Type
  {bde58a11-5cae-4009-9e96-ca1c84d6f32c}, !- Construction Name
  {3e206382-9b7a-4c98-88d2-0b5901b803f5}, !- Space Name
  Outdoors,                               !- Outside Boundary Condition
  ,                                       !- Outside Boundary Condition Object
  SunExposed,                             !- Sun Exposure
  WindExposed,                            !- Wind Exposure
  ,                                       !- View Factor to Ground
  ,                                       !- Number of Vertices
  19.0757077738154, 10.5976154298974, 2.4384, !- X,Y,Z Vertex 1 {m}
  19.0757077738154, 10.5976154298974, 0,  !- X,Y,Z Vertex 2 {m}
  0, 10.5976154298974, 0,                 !- X,Y,Z Vertex 3 {m}
  0, 10.5976154298974, 2.4384;            !- X,Y,Z Vertex 4 {m}

OS:Surface,
  {55c787ae-9a10-4c46-908d-9e7e40a5f12e}, !- Handle
  Surface 4,                              !- Name
  Wall,                                   !- Surface Type
  {bde58a11-5cae-4009-9e96-ca1c84d6f32c}, !- Construction Name
  {3e206382-9b7a-4c98-88d2-0b5901b803f5}, !- Space Name
  Outdoors,                               !- Outside Boundary Condition
  ,                                       !- Outside Boundary Condition Object
  SunExposed,                             !- Sun Exposure
  WindExposed,                            !- Wind Exposure
  ,                                       !- View Factor to Ground
  ,                                       !- Number of Vertices
  19.0757077738154, 0, 2.4384,            !- X,Y,Z Vertex 1 {m}
  19.0757077738154, 0, 0,                 !- X,Y,Z Vertex 2 {m}
  19.0757077738154, 10.5976154298974, 0,  !- X,Y,Z Vertex 3 {m}
  19.0757077738154, 10.5976154298974, 2.4384; !- X,Y,Z Vertex 4 {m}

OS:Surface,
  {aae66fe0-7070-4cb7-b103-d0edbb445fa2}, !- Handle
  Surface 5,                              !- Name
  Wall,                                   !- Surface Type
  {bde58a11-5cae-4009-9e96-ca1c84d6f32c}, !- Construction Name
  {3e206382-9b7a-4c98-88d2-0b5901b803f5}, !- Space Name
  Outdoors,                               !- Outside Boundary Condition
  ,                                       !- Outside Boundary Condition Object
  SunExposed,                             !- Sun Exposure
  WindExposed,                            !- Wind Exposure
  ,                                       !- View Factor to Ground
  ,                                       !- Number of Vertices
  1.04865714285714, 0, -7.0074012992194e-07, !- X,Y,Z Vertex 1 {m}
  19.0757077738154, 0, 0,                 !- X,Y,Z Vertex 2 {m}
  19.0757077738154, 0, 2.4384,            !- X,Y,Z Vertex 3 {m}
  1.04865714285714, 0, 2.43839879316978;  !- X,Y,Z Vertex 4 {m}

OS:Surface,
  {59203c1c-e5e0-48b7-924a-9fe92a48df7c}, !- Handle
  Surface 6,                              !- Name
  RoofCeiling,                            !- Surface Type
  {2c0b37de-857e-4b94-8052-6a4a203917a9}, !- Construction Name
  {3e206382-9b7a-4c98-88d2-0b5901b803f5}, !- Space Name
  Surface,                                !- Outside Boundary Condition
  {69a4faa9-fe1b-4cbb-929f-b539c1e18647}, !- Outside Boundary Condition Object
  NoSun,                                  !- Sun Exposure
  NoWind,                                 !- Wind Exposure
  ,                                       !- View Factor to Ground
  ,                                       !- Number of Vertices
  19.0757077738154, 0, 2.4384,            !- X,Y,Z Vertex 1 {m}
  19.0757077738154, 10.5976154298974, 2.4384, !- X,Y,Z Vertex 2 {m}
  0, 10.5976154298974, 2.4384,            !- X,Y,Z Vertex 3 {m}
  0, 0, 2.4384;                           !- X,Y,Z Vertex 4 {m}

OS:SpaceType,
  {f5427d9a-1c91-40fe-a2b2-9f632017238f}, !- Handle
  Space Type 1,                           !- Name
  ,                                       !- Default Construction Set Name
  ,                                       !- Default Schedule Set Name
  ,                                       !- Group Rendering Name
  ,                                       !- Design Specification Outdoor Air Object Name
  ,                                       !- Standards Template