
OS:Version,
  {171aafeb-679e-437f-bb7a-400decdfc921}, !- Handle
  3.2.1;                                  !- Version Identifier

OS:Building,
  {d2ca1b5d-6e9e-4c6e-b637-5a4a42615439}, !- Handle
  Building 1,                             !- Name
  ,                                       !- Building Sector Type
  270,                                    !- North Axis {deg}
  ,                                       !- Nominal Floor to Floor Height {m}
  ,                                       !- Space Type Name
  ,                                       !- Default Construction Set Name
  ,                                       !- Default Schedule Set Name
  1,                                      !- Standards Number of Stories
  1,                                      !- Standards Number of Above Ground Stories
  ,                                       !- Standards Template
  singlefamilydetached,                   !- Standards Building Type
  1;                                      !- Standards Number of Living Units

OS:Facility,
  {7cd6d53c-a52f-40a0-9904-7da2817120e8}; !- Handle

OS:Site,
  {8e62a205-73fd-4a17-a1c7-8bc8233685b2}, !- Handle
  Burlington International Ap_VT_USA,     !- Name
  44.47,                                  !- Latitude {deg}
  -73.15,                                 !- Longitude {deg}
  -5,                                     !- Time Zone {hr}
  101,                                    !- Elevation {m}
  Suburbs;                                !- Terrain

OS:SimulationControl,
  {c35393a0-ac77-491b-8d8c-38a9e79eb3c6}, !- Handle
  ,                                       !- Do Zone Sizing Calculation
  ,                                       !- Do System Sizing Calculation
  ,                                       !- Do Plant Sizing Calculation
  No;                                     !- Run Simulation for Sizing Periods

OS:Sizing:Parameters,
  {da47fe79-09ba-4e89-be6d-c9ab034a549f}, !- Handle
  1.25,                                   !- Heating Sizing Factor
  1.15;                                   !- Cooling Sizing Factor

OS:Timestep,
  {47f5db68-3fd4-487e-a1da-91c5ad350ab2}, !- Handle
  4;                                      !- Number of Timesteps per Hour

OS:ShadowCalculation,
  {9cf90341-75d7-4a63-a08b-3de3cda08b8e}, !- Handle
  PolygonClipping,                        !- Shading Calculation Method
  ,                                       !- Shading Calculation Update Frequency Method
  20,                                     !- Shading Calculation Update Frequency
  200,                                    !- Maximum Figures in Shadow Overlap Calculations
  ,                                       !- Polygon Clipping Algorithm
  512,                                    !- Pixel Counting Resolution
  DetailedSkyDiffuseModeling,             !- Sky Diffuse Modeling Algorithm
  No,                                     !- Output External Shading Calculation Results
  No,                                     !- Disable Self-Shading Within Shading Zone Groups
  No;                                     !- Disable Self-Shading From Shading Zone Groups to Other Zones

OS:HeatBalanceAlgorithm,
  {a64988b3-09f8-4c7d-93c8-b997aa7047bb}, !- Handle
  ConductionTransferFunction,             !- Algorithm
  200;                                    !- Surface Temperature Upper Limit {C}

OS:RunPeriod,
  {a531c8de-e786-4817-9934-bad49fe3fd4d}, !- Handle
  Run Period 1,                           !- Name
  1,                                      !- Begin Month
  1,                                      !- Begin Day of Month
  12,                                     !- End Month
  31,                                     !- End Day of Month
  ,                                       !- Use Weather File Holidays and Special Days
  ,                                       !- Use Weather File Daylight Saving Period
  ,                                       !- Apply Weekend Holiday Rule
  ,                                       !- Use Weather File Rain Indicators
  ,                                       !- Use Weather File Snow Indicators
  ;                                       !- Number of Times Runperiod to be Repeated

OS:LifeCycleCost:Parameters,
  {9db55350-5e5b-4ebb-8b2a-60bf88ede591}, !- Handle
  ,                                       !- Analysis Type
  ,                                       !- Discounting Convention
  ,                                       !- Inflation Approach
  ,                                       !- Real Discount Rate
  ,                                       !- Nominal Discount Rate
  ,                                       !- Inflation
  ,                                       !- Base Date Month
  ,                                       !- Base Date Year
  ,                                       !- Service Date Month
  ,                                       !- Service Date Year
  ;                                       !- Length of Study Period in Years

OS:SurfaceConvectionAlgorithm:Outside,
  {b99dc8da-b6cd-4aba-92bf-fa306bf68883}, !- Handle
  DOE-2;                                  !- Algorithm

OS:SurfaceConvectionAlgorithm:Inside,
  {af6130d6-897d-4f13-9522-fb9f91c0ee96}, !- Handle
  TARP;                                   !- Algorithm

OS:ZoneCapacitanceMultiplier:ResearchSpecial,
  {0331059d-5f46-4d5f-9365-8e135b4f614a}, !- Handle
  ,                                       !- Temperature Capacity Multiplier
  15,                                     !- Humidity Capacity Multiplier
  ;                                       !- Carbon Dioxide Capacity Multiplier

OS:YearDescription,
  {74aa0556-1a31-4e30-a94a-447891584ae2}, !- Handle
  2018,                                   !- Calendar Year
  ,                                       !- Day of Week for Start Day
  ;                                       !- Is Leap Year

OS:AdditionalProperties,
  {b3e9b3e0-6778-43e3-acef-174c88426713}, !- Handle
  {d2ca1b5d-6e9e-4c6e-b637-5a4a42615439}, !- Object Name
  Building ID,                            !- Feature Name 1
  Integer,                                !- Feature Data Type 1
  319918,                                 !- Feature Value 1
  num_occupants,                          !- Feature Name 2
  Integer,                                !- Feature Data Type 2
  1,                                      !- Feature Value 2
  Schedules Path,                         !- Feature Name 3
  String,                                 !- Feature Data Type 3
  /var/simdata/openstudio/run/schedules.csv, !- Feature Value 3
  Total Units Modeled,                    !- Feature Name 4
  Integer,                                !- Feature Data Type 4
  1,                                      !- Feature Value 4
  has_water_heater_flue,                  !- Feature Name 5
  Boolean,                                !- Feature Data Type 5
  true,                                   !- Feature Value 5
  has_hvac_flue,                          !- Feature Name 6
  Boolean,                                !- Feature Data Type 6
  false,                                  !- Feature Value 6
  has_fireplace_chimney,                  !- Feature Name 7
  Boolean,                                !- Feature Data Type 7
  false;                                  !- Feature Value 7

OS:WeatherFile,
  {603e7a21-1b3c-4cb7-842d-6d9c7a611ae2}, !- Handle
  Burlington International Ap,            !- City
  VT,                                     !- State Province Region
  USA,                                    !- Country
  TMY3,                                   !- Data Source
  726170,                                 !- WMO Number
  44.47,                                  !- Latitude {deg}
  -73.15,                                 !- Longitude {deg}
  -5,                                     !- Time Zone {hr}
  101,                                    !- Elevation {m}
  /weather/G5000070.epw,                  !- Url
  628C5698;                               !- Checksum

OS:AdditionalProperties,
  {5b8e8beb-deee-4c9e-82f3-91f0d24f5612}, !- Handle
  {603e7a21-1b3c-4cb7-842d-6d9c7a611ae2}, !- Object Name
  EPWHeaderCity,                          !- Feature Name 1
  String,                                 !- Feature Data Type 1
  Burlington International Ap,            !- Feature Value 1
  EPWHeaderState,                         !- Feature Name 2
  String,                                 !- Feature Data Type 2
  VT,                                     !- Feature Value 2
  EPWHeaderCountry,                       !- Feature Name 3
  String,                                 !- Feature Data Type 3
  USA,                                    !- Feature Value 3
  EPWHeaderDataSource,                    !- Feature Name 4
  String,                                 !- Feature Data Type 4
  TMY3,                                   !- Feature Value 4
  EPWHeaderStation,                       !- Feature Name 5
  String,                                 !- Feature Data Type 5
  726170,                                 !- Feature Value 5
  EPWHeaderLatitude,                      !- Feature Name 6
  Double,                                 !- Feature Data Type 6
  44.469999999999999,                     !- Feature Value 6
  EPWHeaderLongitude,                     !- Feature Name 7
  Double,                                 !- Feature Data Type 7
  -73.150000000000006,                    !- Feature Value 7
  EPWHeaderTimezone,                      !- Feature Name 8
  Double,                                 !- Feature Data Type 8
  -5,                                     !- Feature Value 8
  EPWHeaderAltitude,                      !- Feature Name 9
  Double,                                 !- Feature Data Type 9
  331.36482939632543,                     !- Feature Value 9
  EPWHeaderLocalPressure,                 !- Feature Name 10
  Double,                                 !- Feature Data Type 10
  0.98787982255594464,                    !- Feature Value 10
  EPWHeaderRecordsPerHour,                !- Feature Name 11
  Double,                                 !- Feature Data Type 11
  1,                                      !- Feature Value 11
  EPWDataAnnualAvgDrybulb,                !- Feature Name 12
  Double,                                 !- Feature Data Type 12
  46.159054794520515,                     !- Feature Value 12
  EPWDataAnnualMinDrybulb,                !- Feature Name 13
  Double,                                 !- Feature Data Type 13
  -18.039999999999999,                    !- Feature Value 13
  EPWDataAnnualMaxDrybulb,                !- Feature Name 14
  Double,                                 !- Feature Data Type 14
  98.960000000000008,                     !- Feature Value 14
  EPWDataCDD50F,                          !- Feature Name 15
  Double,                                 !- Feature Data Type 15
  2312.4525000000003,                     !- Feature Value 15
  EPWDataCDD65F,                          !- Feature Name 16
  Double,                                 !- Feature Data Type 16
  421.72500000000031,                     !- Feature Value 16
  EPWDataHDD50F,                          !- Feature Name 17
  Double,                                 !- Feature Data Type 17
  3714.3974999999978,                     !- Feature Value 17
  EPWDataHDD65F,                          !- Feature Name 18
  Double,                                 !- Feature Data Type 18
  7298.6700000000001,                     !- Feature Value 18
  EPWDataAnnualAvgWindspeed,              !- Feature Name 19
  Double,                                 !- Feature Data Type 19
  4.2093721461184028,                     !- Feature Value 19
  EPWDataMonthlyAvgDrybulbs,              !- Feature Name 20
  String,                                 !- Feature Data Type 20
  19.007096774193542&#4421.939553571428576&#4431.09637096774194&#4446.09875&#4456.87459677419351&#4466.70225000000002&#4469.90112903225807&#4467.61096774193553&#4459.15749999999998&#4447.586693548387096&#4437.000249999999994&#4429.37427419354839, !- Feature Value 20
  EPWDataGroundMonthlyTemps,              !- Feature Name 21
  String,                                 !- Feature Data Type 21
  36.935898785308154&#4433.04339899072181&#4432.7316736478366&#4434.578863693096196&#4441.99430238960366&#4449.375196826868034&#4455.774037837617186&#4459.82754624163937&#4460.17191404490012&#4456.87506626000578&#4450.6393994518848&#4443.48492079304418, !- Feature Value 21
  EPWDataWSF,                             !- Feature Name 22
  Double,                                 !- Feature Data Type 22
  0.60999999999999999,                    !- Feature Value 22
  EPWDataMonthlyAvgDailyHighDrybulbs,     !- Feature Name 23
  String,                                 !- Feature Data Type 23
  26.303870967741936&#4430.174285714285713&#4438.288387096774194&#4455.436&#4466.18838709677418&#4475.73399999999998&#4479.5083870967742&#4476.93612903225807&#4466.38&#4455.527741935483874&#4442.47&#4435.303870967741936, !- Feature Value 23
  EPWDataMonthlyAvgDailyLowDrybulbs,      !- Feature Name 24
  String,                                 !- Feature Data Type 24
  10.051612903225806&#4411.89142857142857&#4423.412258064516127&#4435.102000000000004&#4446.16193548387097&#4456.300000000000004&#4459.25548387096774&#4458.0883870967742&#4451.836&#4438.329032258064515&#4431.022&#4422.181290322580644, !- Feature Value 24
  EPWDesignHeatingDrybulb,                !- Feature Name 25
  Double,                                 !- Feature Data Type 25
  -3.4600000000000009,                    !- Feature Value 25
  EPWDesignHeatingWindspeed,              !- Feature Name 26
  Double,                                 !- Feature Data Type 26
  11.5,                                   !- Feature Value 26
  EPWDesignCoolingDrybulb,                !- Feature Name 27
  Double,                                 !- Feature Data Type 27
  85.280000000000001,                     !- Feature Value 27
  EPWDesignCoolingWetbulb,                !- Feature Name 28
  Double,                                 !- Feature Data Type 28
  69.620000000000005,                     !- Feature Value 28
  EPWDesignCoolingHumidityRatio,          !- Feature Name 29
  Double,                                 !- Feature Data Type 29
  0.011971942596874259,                   !- Feature Value 29
  EPWDesignCoolingWindspeed,              !- Feature Name 30
  Double,                                 !- Feature Data Type 30
  4.5,                                    !- Feature Value 30
  EPWDesignDailyTemperatureRange,         !- Feature Name 31
  Double,                                 !- Feature Data Type 31
  19.259999999999998,                     !- Feature Value 31
  EPWDesignDehumidDrybulb,                !- Feature Name 32
  Double,                                 !- Feature Data Type 32
  75.560000000000002,                     !- Feature Value 32
  EPWDesignDehumidHumidityRatio,          !- Feature Name 33
  Double,                                 !- Feature Data Type 33
  0.014690657683993896,                   !- Feature Value 33
  EPWDesignCoolingDirectNormal,           !- Feature Name 34
  Double,                                 !- Feature Data Type 34
  818,                                    !- Feature Value 34
  EPWDesignCoolingDiffuseHorizontal,      !- Feature Name 35
  Double,                                 !- Feature Data Type 35
  243;                                    !- Feature Value 35

OS:ClimateZones,
  {2b89747d-6bcd-4388-a286-47f60ba6e03c}, !- Handle
  Building America,                       !- Climate Zone Institution Name 1
  ,                                       !- Climate Zone Document Name 1
  0,                                      !- Climate Zone Document Year 1
  Cold;                                   !- Climate Zone Value 1

OS:Site:WaterMainsTemperature,
  {fa127d05-c868-40ff-8914-52ef30aace85}, !- Handle
  Correlation,                            !- Calculation Method
  ,                                       !- Temperature Schedule Name
  7.8661415525114,                        !- Annual Average Outdoor Air Temperature {C}
  28.2744623655914;                       !- Maximum Difference In Monthly Average Outdoor Air Temperatures {deltaC}

OS:RunPeriodControl:DaylightSavingTime,
  {b28c7042-1d73-4a71-89bd-321fc44ef18f}, !- Handle
  3/10,                                   !- Start Date
  11/3;                                   !- End Date

OS:Site:GroundTemperature:Deep,
  {47771651-bf72-469f-87bb-9eb03a170577}, !- Handle
  7.8661415525114,                        !- January Deep Ground Temperature {C}
  7.8661415525114,                        !- February Deep Ground Temperature {C}
  7.8661415525114,                        !- March Deep Ground Temperature {C}
  7.8661415525114,                        !- April Deep Ground Temperature {C}
  7.8661415525114,                        !- May Deep Ground Temperature {C}
  7.8661415525114,                        !- June Deep Ground Temperature {C}
  7.8661415525114,                        !- July Deep Ground Temperature {C}
  7.8661415525114,                        !- August Deep Ground Temperature {C}
  7.8661415525114,                        !- September Deep Ground Temperature {C}
  7.8661415525114,                        !- October Deep Ground Temperature {C}
  7.8661415525114,                        !- November Deep Ground Temperature {C}
  7.8661415525114;                        !- December Deep Ground Temperature {C}

OS:ThermalZone,
  {9a2d0606-4485-4c88-815a-b3259d5a059a}, !- Handle
  living zone,                            !- Name
  ,                                       !- Multiplier
  ,                                       !- Ceiling Height {m}
  ,                                       !- Volume {m3}
  ,                                       !- Floor Area {m2}
  ,                                       !- Zone Inside Convection Algorithm
  ,                                       !- Zone Outside Convection Algorithm
  ,                                       !- Zone Conditioning Equipment List Name
  {aa2340bc-f48d-4f95-9d0f-c3c59a0c9cfa}, !- Zone Air Inlet Port List
  {68f9b877-f2fa-48eb-8113-d50d93ffc374}, !- Zone Air Exhaust Port List
  {e255d427-b048-4b1c-9fde-6f5e41d4f573}, !- Zone Air Node Name
  {b330e1b5-6129-4823-915e-77002b5c3336}, !- Zone Return Air Port List
  ,                                       !- Primary Daylighting Control Name
  ,                                       !- Fraction of Zone Controlled by Primary Daylighting Control
  ,                                       !- Secondary Daylighting Control Name
  ,                                       !- Fraction of Zone Controlled by Secondary Daylighting Control
  ,                                       !- Illuminance Map Name
  ,                                       !- Group Rendering Name
  {86a2feda-0c16-45e2-a24c-ef9f18c68af8}, !- Thermostat Name
  No;                                     !- Use Ideal Air Loads

OS:Node,
  {7ddb5616-9189-4a63-b54a-e974a5217c01}, !- Handle
  Node 1,                                 !- Name
  {e255d427-b048-4b1c-9fde-6f5e41d4f573}, !- Inlet Port
  ;                                       !- Outlet Port

OS:Connection,
  {e255d427-b048-4b1c-9fde-6f5e41d4f573}, !- Handle
  {9a2d0606-4485-4c88-815a-b3259d5a059a}, !- Source Object
  11,                                     !- Outlet Port
  {7ddb5616-9189-4a63-b54a-e974a5217c01}, !- Target Object
  2;                                      !- Inlet Port

OS:PortList,
  {aa2340bc-f48d-4f95-9d0f-c3c59a0c9cfa}, !- Handle
  {9a2d0606-4485-4c88-815a-b3259d5a059a}, !- HVAC Component
  {0d5f8b6e-501d-4035-a1ca-a56da2552a3e}; !- Port 1

OS:PortList,
  {68f9b877-f2fa-48eb-8113-d50d93ffc374}, !- Handle
  {9a2d0606-4485-4c88-815a-b3259d5a059a}; !- HVAC Component

OS:PortList,
  {b330e1b5-6129-4823-915e-77002b5c3336}, !- Handle
  {9a2d0606-4485-4c88-815a-b3259d5a059a}, !- HVAC Component
  {b67ea947-9835-4e9f-81ac-315f50fe2829}; !- Port 1

OS:Sizing:Zone,
  {9789261b-477b-45de-8d37-6e8d4c9674cd}, !- Handle
  {9a2d0606-4485-4c88-815a-b3259d5a059a}, !- Zone or ZoneList Name
  SupplyAirTemperature,                   !- Zone Cooling Design Supply Air Temperature Input Method
  14,                                     !- Zone Cooling Design Supply Air Temperature {C}
  11.11,                                  !- Zone Cooling Design Supply Air Temperature Difference {deltaC}
  SupplyAirTemperature,                   !- Zone Heating Design Supply Air Temperature Input Method
  40,                                     !- Zone Heating Design Supply Air Temperature {C}
  11.11,                                  !- Zone Heating Design Supply Air Temperature Difference {deltaC}
  0.0085,                                 !- Zone Cooling Design Supply Air Humidity Ratio {kg-H2O/kg-air}
  0.008,                                  !- Zone Heating Design Supply Air Humidity Ratio {kg-H2O/kg-air}
  ,                                       !- Zone Heating Sizing Factor
  ,                                       !- Zone Cooling Sizing Factor
  DesignDay,                              !- Cooling Design Air Flow Method
  ,                                       !- Cooling Design Air Flow Rate {m3/s}
  ,                                       !- Cooling Minimum Air Flow per Zone Floor Area {m3/s-m2}
  ,                                       !- Cooling Minimum Air Flow {m3/s}
  ,                                       !- Cooling Minimum Air Flow Fraction
  DesignDay,                              !- Heating Design Air Flow Method
  ,                                       !- Heating Design Air Flow Rate {m3/s}
  ,                                       !- Heating Maximum Air Flow per Zone Floor Area {m3/s-m2}
  ,                                       !- Heating Maximum Air Flow {m3/s}
  ,                                       !- Heating Maximum Air Flow Fraction
  No,                                     !- Account for Dedicated Outdoor Air System
  NeutralSupplyAir,                       !- Dedicated Outdoor Air System Control Strategy
  autosize,                               !- Dedicated Outdoor Air Low Setpoint Temperature for Design {C}
  autosize;                               !- Dedicated Outdoor Air High Setpoint Temperature for Design {C}

OS:ZoneHVAC:EquipmentList,
  {f506bbfe-c174-480c-8f34-cd275d424aa3}, !- Handle
  Zone HVAC Equipment List 1,             !- Name
  {9a2d0606-4485-4c88-815a-b3259d5a059a}, !- Thermal Zone
  SequentialLoad,                         !- Load Distribution Scheme
  {4ea44695-3d73-408d-9f95-516d705b01aa}, !- Zone Equipment 1
  1,                                      !- Zone Equipment Cooling Sequence 1
  1,                                      !- Zone Equipment Heating or No-Load Sequence 1
  ,                                       !- Zone Equipment Sequential Cooling Fraction Schedule Name 1
  ;                                       !- Zone Equipment Sequential Heating Fraction Schedule Name 1

OS:Space,
  {9397fb8d-8426-49e4-aa51-5d907708b03d}, !- Handle
  living space,                           !- Name
  {fd68c5ea-8e25-43f8-8429-adf9f5e990b7}, !- Space Type Name
  ,                                       !- Default Construction Set Name
  ,                                       !- Default Schedule Set Name
  -0,                                     !- Direction of Relative North {deg}
  0,                                      !- X Origin {m}
  0,                                      !- Y Origin {m}
  0,                                      !- Z Origin {m}
  ,                                       !- Building Story Name
  {9a2d0606-4485-4c88-815a-b3259d5a059a}, !- Thermal Zone Name
  ,                                       !- Part of Total Floor Area
  ,                                       !- Design Specification Outdoor Air Object Name
  {752dbb16-a8db-4e8c-9484-949151733833}; !- Building Unit Name

OS:Surface,
  {d98cdcbe-a73a-428c-b05c-d85ab8535530}, !- Handle
  Surface 1,                              !- Name
  Floor,                                  !- Surface Type
  {b48c3f79-858a-4e56-a6ce-ad3932313634}, !- Construction Name
  {9397fb8d-8426-49e4-aa51-5d907708b03d}, !- Space Name
  Surface,                                !- Outside Boundary Condition
  {6014ea3a-e539-4e56-9dbf-a31901c04ca1}, !- Outside Boundary Condition Object
  NoSun,                                  !- Sun Exposure
  NoWind,                                 !- Wind Exposure
  ,                                       !- View Factor to Ground
  ,                                       !- Number of Vertices
  0, 0, 0,                                !- X,Y,Z Vertex 1 {m}
  0, 7.93521367072116, 0,                 !- X,Y,Z Vertex 2 {m}
  14.2833846072981, 7.93521367072116, 0,  !- X,Y,Z Vertex 3 {m}
  14.2833846072981, 0, 0;                 !- X,Y,Z Vertex 4 {m}

OS:Surface,
  {3d2607f6-3e7d-4c23-83bd-9075265a676d}, !- Handle
  Surface 2,                              !- Name
  Wall,                                   !- Surface Type
  {7ac3dd8b-aca5-41b1-9851-99f28bdb03db}, !- Construction Name
  {9397fb8d-8426-49e4-aa51-5d907708b03d}, !- Space Name
  Outdoors,                               !- Outside Boundary Condition
  ,                                       !- Outside Boundary Condition Object
  SunExposed,                             !- Sun Exposure
  WindExposed,                            !- Wind Exposure
  ,                                       !- View Factor to Ground
  ,                                       !- Number of Vertices
  0, 7.93521367072116, 2.4384,            !- X,Y,Z Vertex 1 {m}
  0, 7.93521367072116, 0,                 !- X,Y,Z Vertex 2 {m}
  0, 0, 0,                                !- X,Y,Z Vertex 3 {m}
  0, 0, 2.4384;                           !- X,Y,Z Vertex 4 {m}

OS:Surface,
  {f6b50b9e-e414-41fc-9e58-7f09690365ab}, !- Handle
  Surface 3,                              !- Name
  Wall,                                   !- Surface Type
  {7ac3dd8b-aca5-41b1-9851-99f28bdb03db}, !- Construction Name
  {9397fb8d-8426-49e4-aa51-5d907708b03d}, !- Space Name
  Outdoors,                               !- Outside Boundary Condition
  ,                                       !- Outside Boundary Condition Object
  SunExposed,                             !- Sun Exposure
  WindExposed,                            !- Wind Exposure
  ,                                       !- View Factor to Ground
  ,                                       !- Number of Vertices
  14.2833846072981, 7.93521367072116, 2.4384, !- X,Y,Z Vertex 1 {m}
  14.2833846072981, 7.93521367072116, 0,  !- X,Y,Z Vertex 2 {m}
  0, 7.93521367072116, 0,                 !- X,Y,Z Vertex 3 {m}
  0, 7.93521367072116, 2.4384;            !- X,Y,Z Vertex 4 {m}

OS:Surface,
  {062e4fd1-1005-480b-a884-e4568cfe70e9}, !- Handle
  Surface 4,                              !- Name
  Wall,                                   !- Surface Type
  {7ac3dd8b-aca5-41b1-9851-99f28bdb03db}, !- Construction Name
  {9397fb8d-8426-49e4-aa51-5d907708b03d}, !- Space Name
  Outdoors,                               !- Outside Boundary Condition
  ,                                       !- Outside Boundary Condition Object
  SunExposed,                             !- Sun Exposure
  WindExposed,                            !- Wind Exposure
  ,                                       !- View Factor to Ground
  ,                                       !- Number of Vertices
  14.2833846072981, 0, 2.4384,            !- X,Y,Z Vertex 1 {m}
  14.2833846072981, 0, 0,                 !- X,Y,Z Vertex 2 {m}
  14.2833846072981, 7.93521367072116, 0,  !- X,Y,Z Vertex 3 {m}
  14.2833846072981, 7.93521367072116, 2.4384; !- X,Y,Z Vertex 4 {m}

OS:Surface,
  {b2012de2-24c9-431d-89cb-549c5b2c0082}, !- Handle
  Surface 5,                              !- Name
  Wall,                                   !- Surface Type
  {7ac3dd8b-aca5-41b1-9851-99f28bdb03db}, !- Construction Name
  {9397fb8d-8426-49e4-aa51-5d907708b03d}, !- Space Name
  Outdoors,                               !- Outside Boundary Condition
  ,                                       !- Outside Boundary Condition Object
  SunExposed,                             !- Sun Exposure
  WindExposed,                            !- Wind Exposure
  ,                                       !- View Factor to Ground
  ,                                       !- Number of Vertices
  1.04865714285714, 0, 1.45748839219806e-07, !- X,Y,Z Vertex 1 {m}
  14.2833846072981, 0, 0,                 !- X,Y,Z Vertex 2 {m}
  14.2833846072981, 0, 2.4384,            !- X,Y,Z Vertex 3 {m}
  1.04865714285714, 0, 2.43839985425116;  !- X,Y,Z Vertex 4 {m}

OS:Surface,
  {73f4fa4a-a893-4a2d-b0f6-7800842ee412}, !- Handle
  Surface 6,                              !- Name
  RoofCeiling,                            !- Surface Type
  {62f1c9e5-b3a8-49c6-9b95-48cd178828d5}, !- Construction Name
  {9397fb8d-8426-49e4-aa51-5d907708b03d}, !- Space Name
  Surface,                                !- Outside Boundary Condition
  {ccc2211d-1585-4024-8ae1-532faab3eb6b}, !- Outside Boundary Condition Object
  NoSun,                                  !- Sun Exposure
  NoWind,                                 !- Wind Exposure
  ,                                       !- View Factor to Ground
  ,                                       !- Number of Vertices
  14.2833846072981, 0, 2.4384,            !- X,Y,Z Vertex 1 {m}
  14.2833846072981, 7.93521367072116, 2.4384, !- X,Y,Z Vertex 2 {m}
  0, 7.93521367072116, 2.4384,            !- X,Y,Z Vertex 3 {m}
  0, 0, 2.4384;                           !- X,Y,Z Vertex 4 {m}

OS:SpaceType,
  {fd68c5ea-8e25-43f8-8429-adf9f5e990b7}, !- Handle
  Space Type 1,                           !- Name
  ,                                       !- Default Construction Set Name
  ,                                       !- Default Schedule Set Name