
OS:Version,
  {53467b5b-289d-4d4d-b5e4-281011e01a5e}, !- Handle
  3.2.1;                                  !- Version Identifier

OS:Building,
  {76ee2311-7e88-4b2d-87c0-aa86844f6a8a}, !- Handle
  Building 1,                             !- Name
  ,                                       !- Building Sector Type
  0,                                      !- North Axis {deg}
  ,                                       !- Nominal Floor to Floor Height {m}
  ,                                       !- Space Type Name
  ,                                       !- Default Construction Set Name
  ,                                       !- Default Schedule Set Name
  1,                                      !- Standards Number of Stories
  1,                                      !- Standards Number of Above Ground Stories
  ,                                       !- Standards Template
  singlefamilydetached,                   !- Standards Building Type
  1;                                      !- Standards Number of Living Units

OS:Facility,
  {881de3a6-71c7-49ba-a058-e3f83fbf7156}; !- Handle

OS:Site,
  {8ed1652c-0aba-42b9-bf7f-280fe456e16a}, !- Handle
  Burlington International Ap_VT_USA,     !- Name
  44.47,                                  !- Latitude {deg}
  -73.15,                                 !- Longitude {deg}
  -5,                                     !- Time Zone {hr}
  101,                                    !- Elevation {m}
  Suburbs;                                !- Terrain

OS:SimulationControl,
  {35794827-58fa-43e5-8457-805562f86b37}, !- Handle
  ,                                       !- Do Zone Sizing Calculation
  ,                                       !- Do System Sizing Calculation
  ,                                       !- Do Plant Sizing Calculation
  No;                                     !- Run Simulation for Sizing Periods

OS:Sizing:Parameters,
  {8abd3b49-17b7-4cf0-abcb-de657eedbedd}, !- Handle
  1.25,                                   !- Heating Sizing Factor
  1.15;                                   !- Cooling Sizing Factor

OS:Timestep,
  {98759306-8bea-4fc7-b916-2b076ba3be3c}, !- Handle
  4;                                      !- Number of Timesteps per Hour

OS:ShadowCalculation,
  {e547af66-ba06-43b2-880e-3c5aa2c2fc2e}, !- Handle
  PolygonClipping,                        !- Shading Calculation Method
  ,                                       !- Shading Calculation Update Frequency Method
  20,                                     !- Shading Calculation Update Frequency
  200,                                    !- Maximum Figures in Shadow Overlap Calculations
  ,                                       !- Polygon Clipping Algorithm
  512,                                    !- Pixel Counting Resolution
  DetailedSkyDiffuseModeling,             !- Sky Diffuse Modeling Algorithm
  No,                                     !- Output External Shading Calculation Results
  No,                                     !- Disable Self-Shading Within Shading Zone Groups
  No;                                     !- Disable Self-Shading From Shading Zone Groups to Other Zones

OS:HeatBalanceAlgorithm,
  {57161c60-eab5-4583-a245-dcb91708adc5}, !- Handle
  ConductionTransferFunction,             !- Algorithm
  200;                                    !- Surface Temperature Upper Limit {C}

OS:RunPeriod,
  {71362b52-df3f-408b-857d-fe2dfb633b38}, !- Handle
  Run Period 1,                           !- Name
  1,                                      !- Begin Month
  1,                                      !- Begin Day of Month
  12,                                     !- End Month
  31,                                     !- End Day of Month
  ,                                       !- Use Weather File Holidays and Special Days
  ,                                       !- Use Weather File Daylight Saving Period
  ,                                       !- Apply Weekend Holiday Rule
  ,                                       !- Use Weather File Rain Indicators
  ,                                       !- Use Weather File Snow Indicators
  ;                                       !- Number of Times Runperiod to be Repeated

OS:LifeCycleCost:Parameters,
  {bb3e1fa7-058f-4db6-b1bc-273010283150}, !- Handle
  ,                                       !- Analysis Type
  ,                                       !- Discounting Convention
  ,                                       !- Inflation Approach
  ,                                       !- Real Discount Rate
  ,                                       !- Nominal Discount Rate
  ,                                       !- Inflation
  ,                                       !- Base Date Month
  ,                                       !- Base Date Year
  ,                                       !- Service Date Month
  ,                                       !- Service Date Year
  ;                                       !- Length of Study Period in Years

OS:SurfaceConvectionAlgorithm:Outside,
  {36bd78a3-cccb-4d3d-a368-f9820e2392a2}, !- Handle
  DOE-2;                                  !- Algorithm

OS:SurfaceConvectionAlgorithm:Inside,
  {cb174fde-702d-4239-9c1e-4a6121044778}, !- Handle
  TARP;                                   !- Algorithm

OS:ZoneCapacitanceMultiplier:ResearchSpecial,
  {1d74a632-9d00-429f-b271-a16d5ac22032}, !- Handle
  ,                                       !- Temperature Capacity Multiplier
  15,                                     !- Humidity Capacity Multiplier
  ;                                       !- Carbon Dioxide Capacity Multiplier

OS:YearDescription,
  {292b7a42-1671-46ec-9266-d41bf1e41f75}, !- Handle
  2018,                                   !- Calendar Year
  ,                                       !- Day of Week for Start Day
  ;                                       !- Is Leap Year

OS:AdditionalProperties,
  {9d5106b0-ed53-4659-aeb2-a7233977cb63}, !- Handle
  {76ee2311-7e88-4b2d-87c0-aa86844f6a8a}, !- Object Name
  Building ID,                            !- Feature Name 1
  Integer,                                !- Feature Data Type 1
  376570,                                 !- Feature Value 1
  num_occupants,                          !- Feature Name 2
  Integer,                                !- Feature Data Type 2
  2,                                      !- Feature Value 2
  Schedules Path,                         !- Feature Name 3
  String,                                 !- Feature Data Type 3
  /var/simdata/openstudio/run/schedules.csv, !- Feature Value 3
  Total Units Modeled,                    !- Feature Name 4
  Integer,                                !- Feature Data Type 4
  1,                                      !- Feature Value 4
  has_water_heater_flue,                  !- Feature Name 5
  Boolean,                                !- Feature Data Type 5
  true,                                   !- Feature Value 5
  has_hvac_flue,                          !- Feature Name 6
  Boolean,                                !- Feature Data Type 6
  true,                                   !- Feature Value 6
  has_fireplace_chimney,                  !- Feature Name 7
  Boolean,                                !- Feature Data Type 7
  false;                                  !- Feature Value 7

OS:WeatherFile,
  {b531af41-6b6e-43bf-9af4-3692775dbc98}, !- Handle
  Burlington International Ap,            !- City
  VT,                                     !- State Province Region
  USA,                                    !- Country
  TMY3,                                   !- Data Source
  726170,                                 !- WMO Number
  44.47,                                  !- Latitude {deg}
  -73.15,                                 !- Longitude {deg}
  -5,                                     !- Time Zone {hr}
  101,                                    !- Elevation {m}
  /weather/G5000070.epw,                  !- Url
  628C5698;                               !- Checksum

OS:AdditionalProperties,
  {5ff1f772-6b4f-418f-a12e-91e391571ef9}, !- Handle
  {b531af41-6b6e-43bf-9af4-3692775dbc98}, !- Object Name
  EPWHeaderCity,                          !- Feature Name 1
  String,                                 !- Feature Data Type 1
  Burlington International Ap,            !- Feature Value 1
  EPWHeaderState,                         !- Feature Name 2
  String,                                 !- Feature Data Type 2
  VT,                                     !- Feature Value 2
  EPWHeaderCountry,                       !- Feature Name 3
  String,                                 !- Feature Data Type 3
  USA,                                    !- Feature Value 3
  EPWHeaderDataSource,                    !- Feature Name 4
  String,                                 !- Feature Data Type 4
  TMY3,                                   !- Feature Value 4
  EPWHeaderStation,                       !- Feature Name 5
  String,                                 !- Feature Data Type 5
  726170,                                 !- Feature Value 5
  EPWHeaderLatitude,                      !- Feature Name 6
  Double,                                 !- Feature Data Type 6
  44.469999999999999,                     !- Feature Value 6
  EPWHeaderLongitude,                     !- Feature Name 7
  Double,                                 !- Feature Data Type 7
  -73.150000000000006,                    !- Feature Value 7
  EPWHeaderTimezone,                      !- Feature Name 8
  Double,                                 !- Feature Data Type 8
  -5,                                     !- Feature Value 8
  EPWHeaderAltitude,                      !- Feature Name 9
  Double,                                 !- Feature Data Type 9
  331.36482939632543,                     !- Feature Value 9
  EPWHeaderLocalPressure,                 !- Feature Name 10
  Double,                                 !- Feature Data Type 10
  0.98787982255594464,                    !- Feature Value 10
  EPWHeaderRecordsPerHour,                !- Feature Name 11
  Double,                                 !- Feature Data Type 11
  1,                                      !- Feature Value 11
  EPWDataAnnualAvgDrybulb,                !- Feature Name 12
  Double,                                 !- Feature Data Type 12
  46.159054794520515,                     !- Feature Value 12
  EPWDataAnnualMinDrybulb,                !- Feature Name 13
  Double,                                 !- Feature Data Type 13
  -18.039999999999999,                    !- Feature Value 13
  EPWDataAnnualMaxDrybulb,                !- Feature Name 14
  Double,                                 !- Feature Data Type 14
  98.960000000000008,                     !- Feature Value 14
  EPWDataCDD50F,                          !- Feature Name 15
  Double,                                 !- Feature Data Type 15
  2312.4525000000003,                     !- Feature Value 15
  EPWDataCDD65F,                          !- Feature Name 16
  Double,                                 !- Feature Data Type 16
  421.72500000000031,                     !- Feature Value 16
  EPWDataHDD50F,                          !- Feature Name 17
  Double,                                 !- Feature Data Type 17
  3714.3974999999978,                     !- Feature Value 17
  EPWDataHDD65F,                          !- Feature Name 18
  Double,                                 !- Feature Data Type 18
  7298.6700000000001,                     !- Feature Value 18
  EPWDataAnnualAvgWindspeed,              !- Feature Name 19
  Double,                                 !- Feature Data Type 19
  4.2093721461184028,                     !- Feature Value 19
  EPWDataMonthlyAvgDrybulbs,              !- Feature Name 20
  String,                                 !- Feature Data Type 20
  19.007096774193542&#4421.939553571428576&#4431.09637096774194&#4446.09875&#4456.87459677419351&#4466.70225000000002&#4469.90112903225807&#4467.61096774193553&#4459.15749999999998&#4447.586693548387096&#4437.000249999999994&#4429.37427419354839, !- Feature Value 20
  EPWDataGroundMonthlyTemps,              !- Feature Name 21
  String,                                 !- Feature Data Type 21
  36.935898785308154&#4433.04339899072181&#4432.7316736478366&#4434.578863693096196&#4441.99430238960366&#4449.375196826868034&#4455.774037837617186&#4459.82754624163937&#4460.17191404490012&#4456.87506626000578&#4450.6393994518848&#4443.48492079304418, !- Feature Value 21
  EPWDataWSF,                             !- Feature Name 22
  Double,                                 !- Feature Data Type 22
  0.60999999999999999,                    !- Feature Value 22
  EPWDataMonthlyAvgDailyHighDrybulbs,     !- Feature Name 23
  String,                                 !- Feature Data Type 23
  26.303870967741936&#4430.174285714285713&#4438.288387096774194&#4455.436&#4466.18838709677418&#4475.73399999999998&#4479.5083870967742&#4476.93612903225807&#4466.38&#4455.527741935483874&#4442.47&#4435.303870967741936, !- Feature Value 23
  EPWDataMonthlyAvgDailyLowDrybulbs,      !- Feature Name 24
  String,                                 !- Feature Data Type 24
  10.051612903225806&#4411.89142857142857&#4423.412258064516127&#4435.102000000000004&#4446.16193548387097&#4456.300000000000004&#4459.25548387096774&#4458.0883870967742&#4451.836&#4438.329032258064515&#4431.022&#4422.181290322580644, !- Feature Value 24
  EPWDesignHeatingDrybulb,                !- Feature Name 25
  Double,                                 !- Feature Data Type 25
  -3.4600000000000009,                    !- Feature Value 25
  EPWDesignHeatingWindspeed,              !- Feature Name 26
  Double,                                 !- Feature Data Type 26
  11.5,                                   !- Feature Value 26
  EPWDesignCoolingDrybulb,                !- Feature Name 27
  Double,                                 !- Feature Data Type 27
  85.280000000000001,                     !- Feature Value 27
  EPWDesignCoolingWetbulb,                !- Feature Name 28
  Double,                                 !- Feature Data Type 28
  69.620000000000005,                     !- Feature Value 28
  EPWDesignCoolingHumidityRatio,          !- Feature Name 29
  Double,                                 !- Feature Data Type 29
  0.011971942596874259,                   !- Feature Value 29
  EPWDesignCoolingWindspeed,              !- Feature Name 30
  Double,                                 !- Feature Data Type 30
  4.5,                                    !- Feature Value 30
  EPWDesignDailyTemperatureRange,         !- Feature Name 31
  Double,                                 !- Feature Data Type 31
  19.259999999999998,                     !- Feature Value 31
  EPWDesignDehumidDrybulb,                !- Feature Name 32
  Double,                                 !- Feature Data Type 32
  75.560000000000002,                     !- Feature Value 32
  EPWDesignDehumidHumidityRatio,          !- Feature Name 33
  Double,                                 !- Feature Data Type 33
  0.014690657683993896,                   !- Feature Value 33
  EPWDesignCoolingDirectNormal,           !- Feature Name 34
  Double,                                 !- Feature Data Type 34
  818,                                    !- Feature Value 34
  EPWDesignCoolingDiffuseHorizontal,      !- Feature Name 35
  Double,                                 !- Feature Data Type 35
  243;                                    !- Feature Value 35

OS:ClimateZones,
  {399a0069-3889-45a3-8223-7bd75a9e41cd}, !- Handle
  Building America,                       !- Climate Zone Institution Name 1
  ,                                       !- Climate Zone Document Name 1
  0,                                      !- Climate Zone Document Year 1
  Cold;                                   !- Climate Zone Value 1

OS:Site:WaterMainsTemperature,
  {8dcdc1f7-6791-495a-ae5e-9ddab6914a9c}, !- Handle
  Correlation,                            !- Calculation Method
  ,                                       !- Temperature Schedule Name
  7.8661415525114,                        !- Annual Average Outdoor Air Temperature {C}
  28.2744623655914;                       !- Maximum Difference In Monthly Average Outdoor Air Temperatures {deltaC}

OS:RunPeriodControl:DaylightSavingTime,
  {f4b31e04-30a1-4bbb-b3ab-5561012f76f0}, !- Handle
  3/10,                                   !- Start Date
  11/3;                                   !- End Date

OS:Site:GroundTemperature:Deep,
  {1332b815-8745-4399-8ab1-c1330f6354f4}, !- Handle
  7.8661415525114,                        !- January Deep Ground Temperature {C}
  7.8661415525114,                        !- February Deep Ground Temperature {C}
  7.8661415525114,                        !- March Deep Ground Temperature {C}
  7.8661415525114,                        !- April Deep Ground Temperature {C}
  7.8661415525114,                        !- May Deep Ground Temperature {C}
  7.8661415525114,                        !- June Deep Ground Temperature {C}
  7.8661415525114,                        !- July Deep Ground Temperature {C}
  7.8661415525114,                        !- August Deep Ground Temperature {C}
  7.8661415525114,                        !- September Deep Ground Temperature {C}
  7.8661415525114,                        !- October Deep Ground Temperature {C}
  7.8661415525114,                        !- November Deep Ground Temperature {C}
  7.8661415525114;                        !- December Deep Ground Temperature {C}

OS:ThermalZone,
  {59d0ab64-22b2-4898-927e-fa2ad997c851}, !- Handle
  living zone,                            !- Name
  ,                                       !- Multiplier
  ,                                       !- Ceiling Height {m}
  ,                                       !- Volume {m3}
  ,                                       !- Floor Area {m2}
  ,                                       !- Zone Inside Convection Algorithm
  ,                                       !- Zone Outside Convection Algorithm
  ,                                       !- Zone Conditioning Equipment List Name
  {15bda4b0-d99e-419b-ad61-916881304ac5}, !- Zone Air Inlet Port List
  {a8e29684-9d69-488f-b215-d2eb7854ee5b}, !- Zone Air Exhaust Port List
  {4be167fc-e0bf-4655-8070-f3c898d8bdd8}, !- Zone Air Node Name
  {7a0ac1da-cad9-48f6-8afe-67f2e8fbea46}, !- Zone Return Air Port List
  ,                                       !- Primary Daylighting Control Name
  ,                                       !- Fraction of Zone Controlled by Primary Daylighting Control
  ,                                       !- Secondary Daylighting Control Name
  ,                                       !- Fraction of Zone Controlled by Secondary Daylighting Control
  ,                                       !- Illuminance Map Name
  ,                                       !- Group Rendering Name
  {09fb1057-fe7f-401b-8d0f-aa5839adc51e}, !- Thermostat Name
  No;                                     !- Use Ideal Air Loads

OS:Node,
  {981943af-b494-444a-8512-b042838d916e}, !- Handle
  Node 1,                                 !- Name
  {4be167fc-e0bf-4655-8070-f3c898d8bdd8}, !- Inlet Port
  ;                                       !- Outlet Port

OS:Connection,
  {4be167fc-e0bf-4655-8070-f3c898d8bdd8}, !- Handle
  {59d0ab64-22b2-4898-927e-fa2ad997c851}, !- Source Object
  11,                                     !- Outlet Port
  {981943af-b494-444a-8512-b042838d916e}, !- Target Object
  2;                                      !- Inlet Port

OS:PortList,
  {15bda4b0-d99e-419b-ad61-916881304ac5}, !- Handle
  {59d0ab64-22b2-4898-927e-fa2ad997c851}, !- HVAC Component
  {f0f81a82-4e85-4747-bbfb-4c4d72f6a479}, !- Port 1
  {8f4ef570-8981-478b-a534-caca2ba180dd}; !- Port 2

OS:PortList,
  {a8e29684-9d69-488f-b215-d2eb7854ee5b}, !- Handle
  {59d0ab64-22b2-4898-927e-fa2ad997c851}; !- HVAC Component

OS:PortList,
  {7a0ac1da-cad9-48f6-8afe-67f2e8fbea46}, !- Handle
  {59d0ab64-22b2-4898-927e-fa2ad997c851}, !- HVAC Component
  {571e3db2-bafe-458e-9f55-7874a3fc7777}, !- Port 1
  {2f0b02bd-a11e-44ee-9fe3-027ac8a522e3}; !- Port 2

OS:Sizing:Zone,
  {7103adaa-b973-4935-ab24-a76d933e0719}, !- Handle
  {59d0ab64-22b2-4898-927e-fa2ad997c851}, !- Zone or ZoneList Name
  SupplyAirTemperature,                   !- Zone Cooling Design Supply Air Temperature Input Method
  14,                                     !- Zone Cooling Design Supply Air Temperature {C}
  11.11,                                  !- Zone Cooling Design Supply Air Temperature Difference {deltaC}
  SupplyAirTemperature,                   !- Zone Heating Design Supply Air Temperature Input Method
  40,                                     !- Zone Heating Design Supply Air Temperature {C}
  11.11,                                  !- Zone Heating Design Supply Air Temperature Difference {deltaC}
  0.0085,                                 !- Zone Cooling Design Supply Air Humidity Ratio {kg-H2O/kg-air}
  0.008,                                  !- Zone Heating Design Supply Air Humidity Ratio {kg-H2O/kg-air}
  ,                                       !- Zone Heating Sizing Factor
  ,                                       !- Zone Cooling Sizing Factor
  DesignDay,                              !- Cooling Design Air Flow Method
  ,                                       !- Cooling Design Air Flow Rate {m3/s}
  ,                                       !- Cooling Minimum Air Flow per Zone Floor Area {m3/s-m2}
  ,                                       !- Cooling Minimum Air Flow {m3/s}
  ,                                       !- Cooling Minimum Air Flow Fraction
  DesignDay,                              !- Heating Design Air Flow Method
  ,                                       !- Heating Design Air Flow Rate {m3/s}
  ,                                       !- Heating Maximum Air Flow per Zone Floor Area {m3/s-m2}
  ,                                       !- Heating Maximum Air Flow {m3/s}
  ,                                       !- Heating Maximum Air Flow Fraction
  No,                                     !- Account for Dedicated Outdoor Air System
  NeutralSupplyAir,                       !- Dedicated Outdoor Air System Control Strategy
  autosize,                               !- Dedicated Outdoor Air Low Setpoint Temperature for Design {C}
  autosize;                               !- Dedicated Outdoor Air High Setpoint Temperature for Design {C}

OS:ZoneHVAC:EquipmentList,
  {0f6c500f-67d7-4421-b198-99043cc17f6a}, !- Handle
  Zone HVAC Equipment List 1,             !- Name
  {59d0ab64-22b2-4898-927e-fa2ad997c851}, !- Thermal Zone
  SequentialLoad,                         !- Load Distribution Scheme
  {b0301e28-1704-430b-91d3-b57cac69c691}, !- Zone Equipment 1
  1,                                      !- Zone Equipment Cooling Sequence 1
  1,                                      !- Zone Equipment Heating or No-Load Sequence 1
  ,                                       !- Zone Equipment Sequential Cooling Fraction Schedule Name 1
  ,                                       !- Zone Equipment Sequential Heating Fraction Schedule Name 1
  {03527246-23b5-4c3c-ae40-4260ad945953}, !- Zone Equipment 2
  2,                                      !- Zone Equipment Cooling Sequence 2
  2,                                      !- Zone Equipment Heating or No-Load Sequence 2
  ,                                       !- Zone Equipment Sequential Cooling Fraction Schedule Name 2
  ;                                       !- Zone Equipment Sequential Heating Fraction Schedule Name 2

OS:Space,
  {3c10cebd-8d6d-49cb-b6ac-81b6e0a594bf}, !- Handle
  living space,                           !- Name
  {97789ee3-5358-4337-853d-5d410db15798}, !- Space Type Name
  ,                                       !- Default Construction Set Name
  ,                                       !- Default Schedule Set Name
  -0,                                     !- Direction of Relative North {deg}
  0,                                      !- X Origin {m}
  0,                                      !- Y Origin {m}
  0,                                      !- Z Origin {m}
  ,                                       !- Building Story Name
  {59d0ab64-22b2-4898-927e-fa2ad997c851}, !- Thermal Zone Name
  ,                                       !- Part of Total Floor Area
  ,                                       !- Design Specification Outdoor Air Object Name
  {6f243d2f-9ff3-48f6-8987-adc011a04fe8}; !- Building Unit Name

OS:Surface,
  {4d9f1dbd-a551-42e0-8806-9871dacf7e92}, !- Handle
  Surface 1,                              !- Name
  Floor,                                  !- Surface Type
  {f825734a-356b-40e0-9167-c5efb244bd58}, !- Construction Name
  {3c10cebd-8d6d-49cb-b6ac-81b6e0a594bf}, !- Space Name
  Surface,                                !- Outside Boundary Condition
  {c3adc3b7-93f6-459e-b656-0d99e9ed1cb8}, !- Outside Boundary Condition Object
  NoSun,                                  !- Sun Exposure
  NoWind,                                 !- Wind Exposure
  ,                                       !- View Factor to Ground
  ,                                       !- Number of Vertices
  0, 0, 0,                                !- X,Y,Z Vertex 1 {m}
  0, 10.5976154298974, 0,                 !- X,Y,Z Vertex 2 {m}
  19.0757077738154, 10.5976154298974, 0,  !- X,Y,Z Vertex 3 {m}
  19.0757077738154, 0, 0;                 !- X,Y,Z Vertex 4 {m}

OS:Surface,
  {4d86acbb-8caf-4baa-aff6-e4af700634dc}, !- Handle
  Surface 2,                              !- Name
  Wall,                                   !- Surface Type
  {a78c8c0d-ba6c-420f-be68-1d3d4ae26bbd}, !- Construction Name
  {3c10cebd-8d6d-49cb-b6ac-81b6e0a594bf}, !- Space Name
  Outdoors,                               !- Outside Boundary Condition
  ,                                       !- Outside Boundary Condition Object
  SunExposed,                             !- Sun Exposure
  WindExposed,                            !- Wind Exposure
  ,                                       !- View Factor to Ground
  ,                                       !- Number of Vertices
  0, 10.5976154298974, 2.4384,            !- X,Y,Z Vertex 1 {m}
  0, 10.5976154298974, 0,                 !- X,Y,Z Vertex 2 {m}
  0, 0, 0,                                !- X,Y,Z Vertex 3 {m}
  0, 0, 2.4384;                           !- X,Y,Z Vertex 4 {m}

OS:Surface,
  {33dd911f-5f1a-4a2c-b4b6-7f6a4eda48c3}, !- Handle
  Surface 3,                              !- Name
  Wall,                                   !- Surface Type
  {a78c8c0d-ba6c-420f-be68-1d3d4ae26bbd}, !- Construction Name
  {3c10cebd-8d6d-49cb-b6ac-81b6e0a594bf}, !- Space Name
  Outdoors,                               !- Outside Boundary Condition
  ,                                       !- Outside Boundary Condition Object
  SunExposed,                             !- Sun Exposure
  WindExposed,                            !- Wind Exposure
  ,                                       !- View Factor to Ground
  ,                                       !- Number of Vertices
  19.0757077738154, 10.5976154298974, 2.4384, !- X,Y,Z Vertex 1 {m}
  19.0757077738154, 10.5976154298974, 0,  !- X,Y,Z Vertex 2 {m}
  0, 10.5976154298974, 0,                 !- X,Y,Z Vertex 3 {m}
  0, 10.5976154298974, 2.4384;            !- X,Y,Z Vertex 4 {m}

OS:Surface,
  {4aef2796-9a2a-48d9-be43-108760a62b55}, !- Handle
  Surface 4,                              !- Name
  Wall,                                   !- Surface Type
  {a78c8c0d-ba6c-420f-be68-1d3d4ae26bbd}, !- Construction Name
  {3c10cebd-8d6d-49cb-b6ac-81b6e0a594bf}, !- Space Name
  Outdoors,                               !- Outside Boundary Condition
  ,                                       !- Outside Boundary Condition Object
  SunExposed,                             !- Sun Exposure
  WindExposed,                            !- Wind Exposure
  ,                                       !- View Factor to Ground
  ,                                       !- Number of Vertices
  19.0757077738154, 0, 2.4384,            !- X,Y,Z Vertex 1 {m}
  19.0757077738154, 0, 0,                 !- X,Y,Z Vertex 2 {m}
  19.0757077738154, 10.5976154298974, 0,  !- X,Y,Z Vertex 3 {m}
  19.0757077738154, 10.5976154298974, 2.4384; !- X,Y,Z Vertex 4 {m}

OS:Surface,
  {0992601d-b16d-4059-b6ff-f8bc5c6f6a6d}, !- Handle
  Surface 5,                              !- Name
  Wall,                                   !- Surface Type
  {a78c8c0d-ba6c-420f-be68-1d3d4ae26bbd}, !- Construction Name
  {3c10cebd-8d6d-49cb-b6ac-81b6e0a594bf}, !- Space Name
  Outdoors,                               !- Outside Boundary Condition
  ,                                       !- Outside Boundary Condition Object
  SunExposed,                             !- Sun Exposure
  WindExposed,                            !- Wind Exposure
  ,                                       !- View Factor to Ground
  ,                                       !- Number of Vertices
  1.04865714285714, 0, -7.0074012992194e-07, !- X,Y,Z Vertex 1 {m}
  19.0757077738154, 0, 0,                 !- X,Y,Z Vertex 2 {m}
  19.0757077738154, 0, 2.4384,            !- X,Y,Z Vertex 3 {m}
  1.04865714285714, 0, 2.43839879316978;  !- X,Y,Z Vertex 4 {m}

OS:Surface,
  {8b212c08-bea0-4c4b-8174-dadd3fa9279c}, !- Handle
  Surface 6,                              !- Name
  RoofCeiling,                            !- Surface Type
  {97218986-18d9-44fa-8340-762c90363350}, !- Construction Name
  {3c10cebd-8d6d-49cb-b6ac-81b6e0a594bf}, !- Space Name
  Surface,                                !- Outside Boundary Condition
  {475b6144-688c-49b8-bd53-1f51eadbbf22}, !- Outside Boundary Condition Object
  NoSun,                                  !- Sun Exposure
  NoWind,                                 !- Wind Exposure
  ,                                       !- View Factor to Ground
  ,                                       !- Number of Vertices