
OS:Version,
  {43c89376-6796-4e54-9d22-84f279beb10b}, !- Handle
  3.2.1;                                  !- Version Identifier

OS:Building,
  {a44b3d16-bea2-4871-a656-d7fa34de67c1}, !- Handle
  Building 1,                             !- Name
  ,                                       !- Building Sector Type
  225,                                    !- North Axis {deg}
  ,                                       !- Nominal Floor to Floor Height {m}
  ,                                       !- Space Type Name
  ,                                       !- Default Construction Set Name
  ,                                       !- Default Schedule Set Name
  1,                                      !- Standards Number of Stories
  1,                                      !- Standards Number of Above Ground Stories
  ,                                       !- Standards Template
  singlefamilydetached,                   !- Standards Building Type
  1;                                      !- Standards Number of Living Units

OS:Facility,
  {4f9782d3-395f-48d2-832f-2f633dea966f}; !- Handle

OS:Site,
  {2a156184-cd0a-4eb8-a973-80ebae185ae7}, !- Handle
  Burlington International Ap_VT_USA,     !- Name
  44.47,                                  !- Latitude {deg}
  -73.15,                                 !- Longitude {deg}
  -5,                                     !- Time Zone {hr}
  101,                                    !- Elevation {m}
  Suburbs;                                !- Terrain

OS:SimulationControl,
  {e7cefdd3-9b06-45f7-8296-b87e2a990a86}, !- Handle
  ,                                       !- Do Zone Sizing Calculation
  ,                                       !- Do System Sizing Calculation
  ,                                       !- Do Plant Sizing Calculation
  No;                                     !- Run Simulation for Sizing Periods

OS:Sizing:Parameters,
  {f8e0bde0-c609-4862-ba80-c88622085e77}, !- Handle
  1.25,                                   !- Heating Sizing Factor
  1.15;                                   !- Cooling Sizing Factor

OS:Timestep,
  {2de2f866-b424-4751-b591-b8595e2a2123}, !- Handle
  4;                                      !- Number of Timesteps per Hour

OS:ShadowCalculation,
  {d1b5cdff-c2e7-4ec5-b9f4-e35d32de982d}, !- Handle
  PolygonClipping,                        !- Shading Calculation Method
  ,                                       !- Shading Calculation Update Frequency Method
  20,                                     !- Shading Calculation Update Frequency
  200,                                    !- Maximum Figures in Shadow Overlap Calculations
  ,                                       !- Polygon Clipping Algorithm
  512,                                    !- Pixel Counting Resolution
  DetailedSkyDiffuseModeling,             !- Sky Diffuse Modeling Algorithm
  No,                                     !- Output External Shading Calculation Results
  No,                                     !- Disable Self-Shading Within Shading Zone Groups
  No;                                     !- Disable Self-Shading From Shading Zone Groups to Other Zones

OS:HeatBalanceAlgorithm,
  {a76705ce-d090-4746-b1a3-0e4ff0459d27}, !- Handle
  ConductionTransferFunction,             !- Algorithm
  200;                                    !- Surface Temperature Upper Limit {C}

OS:RunPeriod,
  {0fe177ab-e62c-4615-99cb-a06def244699}, !- Handle
  Run Period 1,                           !- Name
  1,                                      !- Begin Month
  1,                                      !- Begin Day of Month
  12,                                     !- End Month
  31,                                     !- End Day of Month
  ,                                       !- Use Weather File Holidays and Special Days
  ,                                       !- Use Weather File Daylight Saving Period
  ,                                       !- Apply Weekend Holiday Rule
  ,                                       !- Use Weather File Rain Indicators
  ,                                       !- Use Weather File Snow Indicators
  ;                                       !- Number of Times Runperiod to be Repeated

OS:LifeCycleCost:Parameters,
  {25f01510-2b5d-41ef-bfda-8df08ba5b4f3}, !- Handle
  ,                                       !- Analysis Type
  ,                                       !- Discounting Convention
  ,                                       !- Inflation Approach
  ,                                       !- Real Discount Rate
  ,                                       !- Nominal Discount Rate
  ,                                       !- Inflation
  ,                                       !- Base Date Month
  ,                                       !- Base Date Year
  ,                                       !- Service Date Month
  ,                                       !- Service Date Year
  ;                                       !- Length of Study Period in Years

OS:SurfaceConvectionAlgorithm:Outside,
  {b105e56e-b3de-49fe-8a48-8463733f309d}, !- Handle
  DOE-2;                                  !- Algorithm

OS:SurfaceConvectionAlgorithm:Inside,
  {af906514-0f31-4870-a5a4-4cacfc74fab3}, !- Handle
  TARP;                                   !- Algorithm

OS:ZoneCapacitanceMultiplier:ResearchSpecial,
  {32a3cf2f-fcb9-4fd6-9723-44fad61c272d}, !- Handle
  ,                                       !- Temperature Capacity Multiplier
  15,                                     !- Humidity Capacity Multiplier
  ;                                       !- Carbon Dioxide Capacity Multiplier

OS:YearDescription,
  {e3383047-c29a-4d6e-aa86-05a0b0a87421}, !- Handle
  2018,                                   !- Calendar Year
  ,                                       !- Day of Week for Start Day
  ;                                       !- Is Leap Year

OS:AdditionalProperties,
  {584b2815-1023-48f7-bd2a-39ec43143892}, !- Handle
  {a44b3d16-bea2-4871-a656-d7fa34de67c1}, !- Object Name
  Building ID,                            !- Feature Name 1
  Integer,                                !- Feature Data Type 1
  411001,                                 !- Feature Value 1
  num_occupants,                          !- Feature Name 2
  Integer,                                !- Feature Data Type 2
  1,                                      !- Feature Value 2
  Schedules Path,                         !- Feature Name 3
  String,                                 !- Feature Data Type 3
  /var/simdata/openstudio/run/schedules.csv, !- Feature Value 3
  Total Units Modeled,                    !- Feature Name 4
  Integer,                                !- Feature Data Type 4
  1,                                      !- Feature Value 4
  has_water_heater_flue,                  !- Feature Name 5
  Boolean,                                !- Feature Data Type 5
  true,                                   !- Feature Value 5
  has_hvac_flue,                          !- Feature Name 6
  Boolean,                                !- Feature Data Type 6
  true,                                   !- Feature Value 6
  has_fireplace_chimney,                  !- Feature Name 7
  Boolean,                                !- Feature Data Type 7
  false;                                  !- Feature Value 7

OS:WeatherFile,
  {51d860a6-7bd4-4c46-98f6-e020666f0980}, !- Handle
  Burlington International Ap,            !- City
  VT,                                     !- State Province Region
  USA,                                    !- Country
  TMY3,                                   !- Data Source
  726170,                                 !- WMO Number
  44.47,                                  !- Latitude {deg}
  -73.15,                                 !- Longitude {deg}
  -5,                                     !- Time Zone {hr}
  101,                                    !- Elevation {m}
  /weather/G5000070.epw,                  !- Url
  628C5698;                               !- Checksum

OS:AdditionalProperties,
  {4c78424f-8765-4556-a9fe-92514fc20df4}, !- Handle
  {51d860a6-7bd4-4c46-98f6-e020666f0980}, !- Object Name
  EPWHeaderCity,                          !- Feature Name 1
  String,                                 !- Feature Data Type 1
  Burlington International Ap,            !- Feature Value 1
  EPWHeaderState,                         !- Feature Name 2
  String,                                 !- Feature Data Type 2
  VT,                                     !- Feature Value 2
  EPWHeaderCountry,                       !- Feature Name 3
  String,                                 !- Feature Data Type 3
  USA,                                    !- Feature Value 3
  EPWHeaderDataSource,                    !- Feature Name 4
  String,                                 !- Feature Data Type 4
  TMY3,                                   !- Feature Value 4
  EPWHeaderStation,                       !- Feature Name 5
  String,                                 !- Feature Data Type 5
  726170,                                 !- Feature Value 5
  EPWHeaderLatitude,                      !- Feature Name 6
  Double,                                 !- Feature Data Type 6
  44.469999999999999,                     !- Feature Value 6
  EPWHeaderLongitude,                     !- Feature Name 7
  Double,                                 !- Feature Data Type 7
  -73.150000000000006,                    !- Feature Value 7
  EPWHeaderTimezone,                      !- Feature Name 8
  Double,                                 !- Feature Data Type 8
  -5,                                     !- Feature Value 8
  EPWHeaderAltitude,                      !- Feature Name 9
  Double,                                 !- Feature Data Type 9
  331.36482939632543,                     !- Feature Value 9
  EPWHeaderLocalPressure,                 !- Feature Name 10
  Double,                                 !- Feature Data Type 10
  0.98787982255594464,                    !- Feature Value 10
  EPWHeaderRecordsPerHour,                !- Feature Name 11
  Double,                                 !- Feature Data Type 11
  1,                                      !- Feature Value 11
  EPWDataAnnualAvgDrybulb,                !- Feature Name 12
  Double,                                 !- Feature Data Type 12
  46.159054794520515,                     !- Feature Value 12
  EPWDataAnnualMinDrybulb,                !- Feature Name 13
  Double,                                 !- Feature Data Type 13
  -18.039999999999999,                    !- Feature Value 13
  EPWDataAnnualMaxDrybulb,                !- Feature Name 14
  Double,                                 !- Feature Data Type 14
  98.960000000000008,                     !- Feature Value 14
  EPWDataCDD50F,                          !- Feature Name 15
  Double,                                 !- Feature Data Type 15
  2312.4525000000003,                     !- Feature Value 15
  EPWDataCDD65F,                          !- Feature Name 16
  Double,                                 !- Feature Data Type 16
  421.72500000000031,                     !- Feature Value 16
  EPWDataHDD50F,                          !- Feature Name 17
  Double,                                 !- Feature Data Type 17
  3714.3974999999978,                     !- Feature Value 17
  EPWDataHDD65F,                          !- Feature Name 18
  Double,                                 !- Feature Data Type 18
  7298.6700000000001,                     !- Feature Value 18
  EPWDataAnnualAvgWindspeed,              !- Feature Name 19
  Double,                                 !- Feature Data Type 19
  4.2093721461184028,                     !- Feature Value 19
  EPWDataMonthlyAvgDrybulbs,              !- Feature Name 20
  String,                                 !- Feature Data Type 20
  19.007096774193542&#4421.939553571428576&#4431.09637096774194&#4446.09875&#4456.87459677419351&#4466.70225000000002&#4469.90112903225807&#4467.61096774193553&#4459.15749999999998&#4447.586693548387096&#4437.000249999999994&#4429.37427419354839, !- Feature Value 20
  EPWDataGroundMonthlyTemps,              !- Feature Name 21
  String,                                 !- Feature Data Type 21
  36.935898785308154&#4433.04339899072181&#4432.7316736478366&#4434.578863693096196&#4441.99430238960366&#4449.375196826868034&#4455.774037837617186&#4459.82754624163937&#4460.17191404490012&#4456.87506626000578&#4450.6393994518848&#4443.48492079304418, !- Feature Value 21
  EPWDataWSF,                             !- Feature Name 22
  Double,                                 !- Feature Data Type 22
  0.60999999999999999,                    !- Feature Value 22
  EPWDataMonthlyAvgDailyHighDrybulbs,     !- Feature Name 23
  String,                                 !- Feature Data Type 23
  26.303870967741936&#4430.174285714285713&#4438.288387096774194&#4455.436&#4466.18838709677418&#4475.73399999999998&#4479.5083870967742&#4476.93612903225807&#4466.38&#4455.527741935483874&#4442.47&#4435.303870967741936, !- Feature Value 23
  EPWDataMonthlyAvgDailyLowDrybulbs,      !- Feature Name 24
  String,                                 !- Feature Data Type 24
  10.051612903225806&#4411.89142857142857&#4423.412258064516127&#4435.102000000000004&#4446.16193548387097&#4456.300000000000004&#4459.25548387096774&#4458.0883870967742&#4451.836&#4438.329032258064515&#4431.022&#4422.181290322580644, !- Feature Value 24
  EPWDesignHeatingDrybulb,                !- Feature Name 25
  Double,                                 !- Feature Data Type 25
  -3.4600000000000009,                    !- Feature Value 25
  EPWDesignHeatingWindspeed,              !- Feature Name 26
  Double,                                 !- Feature Data Type 26
  11.5,                                   !- Feature Value 26
  EPWDesignCoolingDrybulb,                !- Feature Name 27
  Double,                                 !- Feature Data Type 27
  85.280000000000001,                     !- Feature Value 27
  EPWDesignCoolingWetbulb,                !- Feature Name 28
  Double,                                 !- Feature Data Type 28
  69.620000000000005,                     !- Feature Value 28
  EPWDesignCoolingHumidityRatio,          !- Feature Name 29
  Double,                                 !- Feature Data Type 29
  0.011971942596874259,                   !- Feature Value 29
  EPWDesignCoolingWindspeed,              !- Feature Name 30
  Double,                                 !- Feature Data Type 30
  4.5,                                    !- Feature Value 30
  EPWDesignDailyTemperatureRange,         !- Feature Name 31
  Double,                                 !- Feature Data Type 31
  19.259999999999998,                     !- Feature Value 31
  EPWDesignDehumidDrybulb,                !- Feature Name 32
  Double,                                 !- Feature Data Type 32
  75.560000000000002,                     !- Feature Value 32
  EPWDesignDehumidHumidityRatio,          !- Feature Name 33
  Double,                                 !- Feature Data Type 33
  0.014690657683993896,                   !- Feature Value 33
  EPWDesignCoolingDirectNormal,           !- Feature Name 34
  Double,                                 !- Feature Data Type 34
  818,                                    !- Feature Value 34
  EPWDesignCoolingDiffuseHorizontal,      !- Feature Name 35
  Double,                                 !- Feature Data Type 35
  243;                                    !- Feature Value 35

OS:ClimateZones,
  {b8b153a0-2f99-432e-93d0-c7d98deb3071}, !- Handle
  Building America,                       !- Climate Zone Institution Name 1
  ,                                       !- Climate Zone Document Name 1
  0,                                      !- Climate Zone Document Year 1
  Cold;                                   !- Climate Zone Value 1

OS:Site:WaterMainsTemperature,
  {583f52e0-d8b4-4ade-9f66-e3b27d29b3c2}, !- Handle
  Correlation,                            !- Calculation Method
  ,                                       !- Temperature Schedule Name
  7.8661415525114,                        !- Annual Average Outdoor Air Temperature {C}
  28.2744623655914;                       !- Maximum Difference In Monthly Average Outdoor Air Temperatures {deltaC}

OS:RunPeriodControl:DaylightSavingTime,
  {604c7a5f-5a40-41f5-9042-980d942bbffe}, !- Handle
  3/10,                                   !- Start Date
  11/3;                                   !- End Date

OS:Site:GroundTemperature:Deep,
  {d610b476-a5bf-4150-bfac-23d5263843c9}, !- Handle
  7.8661415525114,                        !- January Deep Ground Temperature {C}
  7.8661415525114,                        !- February Deep Ground Temperature {C}
  7.8661415525114,                        !- March Deep Ground Temperature {C}
  7.8661415525114,                        !- April Deep Ground Temperature {C}
  7.8661415525114,                        !- May Deep Ground Temperature {C}
  7.8661415525114,                        !- June Deep Ground Temperature {C}
  7.8661415525114,                        !- July Deep Ground Temperature {C}
  7.8661415525114,                        !- August Deep Ground Temperature {C}
  7.8661415525114,                        !- September Deep Ground Temperature {C}
  7.8661415525114,                        !- October Deep Ground Temperature {C}
  7.8661415525114,                        !- November Deep Ground Temperature {C}
  7.8661415525114;                        !- December Deep Ground Temperature {C}

OS:ThermalZone,
  {d261c3d2-8cc6-44bb-87a8-03980e770ed7}, !- Handle
  living zone,                            !- Name
  ,                                       !- Multiplier
  ,                                       !- Ceiling Height {m}
  ,                                       !- Volume {m3}
  ,                                       !- Floor Area {m2}
  ,                                       !- Zone Inside Convection Algorithm
  ,                                       !- Zone Outside Convection Algorithm
  ,                                       !- Zone Conditioning Equipment List Name
  {62746300-cbea-4100-85a0-77ad16de7e28}, !- Zone Air Inlet Port List
  {5611e10d-05e5-4af8-8d58-15ea1cce3a37}, !- Zone Air Exhaust Port List
  {9a816a4d-bde0-4bd0-8918-b6a476ae9098}, !- Zone Air Node Name
  {566d1280-697b-41f7-95bb-8e9267748bba}, !- Zone Return Air Port List
  ,                                       !- Primary Daylighting Control Name
  ,                                       !- Fraction of Zone Controlled by Primary Daylighting Control
  ,                                       !- Secondary Daylighting Control Name
  ,                                       !- Fraction of Zone Controlled by Secondary Daylighting Control
  ,                                       !- Illuminance Map Name
  ,                                       !- Group Rendering Name
  {c7eea61b-1c4c-4168-a103-8f273a417dee}, !- Thermostat Name
  No;                                     !- Use Ideal Air Loads

OS:Node,
  {b7e5ce9c-7944-4551-a809-36df525d30ae}, !- Handle
  Node 1,                                 !- Name
  {9a816a4d-bde0-4bd0-8918-b6a476ae9098}, !- Inlet Port
  ;                                       !- Outlet Port

OS:Connection,
  {9a816a4d-bde0-4bd0-8918-b6a476ae9098}, !- Handle
  {d261c3d2-8cc6-44bb-87a8-03980e770ed7}, !- Source Object
  11,                                     !- Outlet Port
  {b7e5ce9c-7944-4551-a809-36df525d30ae}, !- Target Object
  2;                                      !- Inlet Port

OS:PortList,
  {62746300-cbea-4100-85a0-77ad16de7e28}, !- Handle
  {d261c3d2-8cc6-44bb-87a8-03980e770ed7}, !- HVAC Component
  {b102e911-186c-4c29-9837-aeaeb5121b50}, !- Port 1
  {34e504a7-bb84-4026-926e-86943b635088}; !- Port 2

OS:PortList,
  {5611e10d-05e5-4af8-8d58-15ea1cce3a37}, !- Handle
  {d261c3d2-8cc6-44bb-87a8-03980e770ed7}; !- HVAC Component

OS:PortList,
  {566d1280-697b-41f7-95bb-8e9267748bba}, !- Handle
  {d261c3d2-8cc6-44bb-87a8-03980e770ed7}, !- HVAC Component
  {827b3fb5-cee0-47b6-983c-1cbf305017a4}, !- Port 1
  {fd39f7dd-48d7-4ea5-af40-adc11af9578a}; !- Port 2

OS:Sizing:Zone,
  {ef25ee60-31fb-4676-82cf-52cf12960d2e}, !- Handle
  {d261c3d2-8cc6-44bb-87a8-03980e770ed7}, !- Zone or ZoneList Name
  SupplyAirTemperature,                   !- Zone Cooling Design Supply Air Temperature Input Method
  14,                                     !- Zone Cooling Design Supply Air Temperature {C}
  11.11,                                  !- Zone Cooling Design Supply Air Temperature Difference {deltaC}
  SupplyAirTemperature,                   !- Zone Heating Design Supply Air Temperature Input Method
  40,                                     !- Zone Heating Design Supply Air Temperature {C}
  11.11,                                  !- Zone Heating Design Supply Air Temperature Difference {deltaC}
  0.0085,                                 !- Zone Cooling Design Supply Air Humidity Ratio {kg-H2O/kg-air}
  0.008,                                  !- Zone Heating Design Supply Air Humidity Ratio {kg-H2O/kg-air}
  ,                                       !- Zone Heating Sizing Factor
  ,                                       !- Zone Cooling Sizing Factor
  DesignDay,                              !- Cooling Design Air Flow Method
  ,                                       !- Cooling Design Air Flow Rate {m3/s}
  ,                                       !- Cooling Minimum Air Flow per Zone Floor Area {m3/s-m2}
  ,                                       !- Cooling Minimum Air Flow {m3/s}
  ,                                       !- Cooling Minimum Air Flow Fraction
  DesignDay,                              !- Heating Design Air Flow Method
  ,                                       !- Heating Design Air Flow Rate {m3/s}
  ,                                       !- Heating Maximum Air Flow per Zone Floor Area {m3/s-m2}
  ,                                       !- Heating Maximum Air Flow {m3/s}
  ,                                       !- Heating Maximum Air Flow Fraction
  No,                                     !- Account for Dedicated Outdoor Air System
  NeutralSupplyAir,                       !- Dedicated Outdoor Air System Control Strategy
  autosize,                               !- Dedicated Outdoor Air Low Setpoint Temperature for Design {C}
  autosize;                               !- Dedicated Outdoor Air High Setpoint Temperature for Design {C}

OS:ZoneHVAC:EquipmentList,
  {1003aa10-331d-4424-bdc6-a3b2b33604c9}, !- Handle
  Zone HVAC Equipment List 1,             !- Name
  {d261c3d2-8cc6-44bb-87a8-03980e770ed7}, !- Thermal Zone
  SequentialLoad,                         !- Load Distribution Scheme
  {8fb72be2-342e-4be3-8a96-dd1ef642d0c5}, !- Zone Equipment 1
  1,                                      !- Zone Equipment Cooling Sequence 1
  1,                                      !- Zone Equipment Heating or No-Load Sequence 1
  ,                                       !- Zone Equipment Sequential Cooling Fraction Schedule Name 1
  ,                                       !- Zone Equipment Sequential Heating Fraction Schedule Name 1
  {92ac5282-a14d-4445-b7ef-770eac27c8bd}, !- Zone Equipment 2
  2,                                      !- Zone Equipment Cooling Sequence 2
  2,                                      !- Zone Equipment Heating or No-Load Sequence 2
  ,                                       !- Zone Equipment Sequential Cooling Fraction Schedule Name 2
  ;                                       !- Zone Equipment Sequential Heating Fraction Schedule Name 2

OS:ThermalZone,
  {d479fa12-9b66-488f-b795-34615ded3f3c}, !- Handle
  garage zone,                            !- Name
  ,                                       !- Multiplier
  ,                                       !- Ceiling Height {m}
  ,                                       !- Volume {m3}
  ,                                       !- Floor Area {m2}
  ,                                       !- Zone Inside Convection Algorithm
  ,                                       !- Zone Outside Convection Algorithm
  ,                                       !- Zone Conditioning Equipment List Name
  {7e2bbaaf-c0b7-44e6-887b-8b5ee65b4ef3}, !- Zone Air Inlet Port List
  {f507f678-ecaa-419f-a689-3349cd2a36b1}, !- Zone Air Exhaust Port List
  {167c96aa-27d4-4def-8780-b9fa7400db23}, !- Zone Air Node Name
  {322ee77a-0507-4d4f-89a6-f12913c24485}, !- Zone Return Air Port List
  ,                                       !- Primary Daylighting Control Name
  ,                                       !- Fraction of Zone Controlled by Primary Daylighting Control
  ,                                       !- Secondary Daylighting Control Name
  ,                                       !- Fraction of Zone Controlled by Secondary Daylighting Control
  ,                                       !- Illuminance Map Name
  ,                                       !- Group Rendering Name
  ,                                       !- Thermostat Name
  No;                                     !- Use Ideal Air Loads

OS:Node,
  {5f0c3038-f080-44bf-b58c-a1943a08d68e}, !- Handle
  Node 2,                                 !- Name
  {167c96aa-27d4-4def-8780-b9fa7400db23}, !- Inlet Port
  ;                                       !- Outlet Port

OS:Connection,
  {167c96aa-27d4-4def-8780-b9fa7400db23}, !- Handle
  {d479fa12-9b66-488f-b795-34615ded3f3c}, !- Source Object
  11,                                     !- Outlet Port
  {5f0c3038-f080-44bf-b58c-a1943a08d68e}, !- Target Object
  2;                                      !- Inlet Port

OS:PortList,
  {7e2bbaaf-c0b7-44e6-887b-8b5ee65b4ef3}, !- Handle
  {d479fa12-9b66-488f-b795-34615ded3f3c}; !- HVAC Component

OS:PortList,
  {f507f678-ecaa-419f-a689-3349cd2a36b1}, !- Handle
  {d479fa12-9b66-488f-b795-34615ded3f3c}; !- HVAC Component

OS:PortList,
  {322ee77a-0507-4d4f-89a6-f12913c24485}, !- Handle
  {d479fa12-9b66-488f-b795-34615ded3f3c}; !- HVAC Component

OS:Sizing:Zone,
  {1719effc-1cd0-497f-93c8-f8961e4112b8}, !- Handle
  {d479fa12-9b66-488f-b795-34615ded3f3c}, !- Zone or ZoneList Name
  SupplyAirTemperature,                   !- Zone Cooling Design Supply Air Temperature Input Method
  14,                                     !- Zone Cooling Design Supply Air Temperature {C}
  11.11,                                  !- Zone Cooling Design Supply Air Temperature Difference {deltaC}
  SupplyAirTemperature,                   !- Zone Heating Design Supply Air Temperature Input Method
  40,                                     !- Zone Heating Design Supply Air Temperature {C}
  11.11,                                  !- Zone Heating Design Supply Air Temperature Difference {deltaC}
  0.0085,                                 !- Zone Cooling Design Supply Air Humidity Ratio {kg-H2O/kg-air}
  0.008,                                  !- Zone Heating Design Supply Air Humidity Ratio {kg-H2O/kg-air}
  ,                                       !- Zone Heating Sizing Factor
  ,                                       !- Zone Cooling Sizing Factor
  DesignDay,                              !- Cooling Design Air Flow Method
  ,                                       !- Cooling Design Air Flow Rate {m3/s}
  ,                                       !- Cooling Minimum Air Flow per Zone Floor Area {m3/s-m2}
  ,                                       !- Cooling Minimum Air Flow {m3/s}
  ,                                       !- Cooling Minimum Air Flow Fraction
  DesignDay,                              !- Heating Design Air Flow Method
  ,                                       !- Heating Design Air Flow Rate {m3/s}
  ,                                       !- Heating Maximum Air Flow per Zone Floor Area {m3/s-m2}
  ,                                       !- Heating Maximum Air Flow {m3/s}
  ,                                       !- Heating Maximum Air Flow Fraction
  No,                                     !- Account for Dedicated Outdoor Air System
  NeutralSupplyAir,                       !- Dedicated Outdoor Air System Control Strategy
  autosize,                               !- Dedicated Outdoor Air Low Setpoint Temperature for Design {C}
  autosize;                               !- Dedicated Outdoor Air High Setpoint Temperature for Design {C}

OS:ZoneHVAC:EquipmentList,
  {3aaa11af-98ea-42c8-b9ea-faa86ec1d5e4}, !- Handle
  Zone HVAC Equipment List 2,             !- Name
  {d479fa12-9b66-488f-b795-34615ded3f3c}; !- Thermal Zone

OS:Space,
  {843b7281-c1e7-4a7a-b6cc-f4ed689c17e6}, !- Handle
  garage space,                           !- Name
  {a805ff69-aef6-4101-88f4-74a946289f91}, !- Space Type Name
  ,                                       !- Default Construction Set Name
  ,                                       !- Default Schedule Set Name
  -0,                                     !- Direction of Relative North {deg}
  0,                                      !- X Origin {m}
  0,                                      !- Y Origin {m}
  0,                                      !- Z Origin {m}
  ,                                       !- Building Story Name
  {d479fa12-9b66-488f-b795-34615ded3f3c}; !- Thermal Zone Name

OS:Surface,
  {640660ee-f85d-4a82-8661-545d54a38efa}, !- Handle
  Surface 1,                              !- Name
  Floor,                                  !- Surface Type
  {f3916a71-9686-4b43-a888-5e99f3341dbf}, !- Construction Name
  {843b7281-c1e7-4a7a-b6cc-f4ed689c17e6}, !- Space Name
  Foundation,                             !- Outside Boundary Condition
  {621fcd62-6ec4-4fd1-b623-7e4688a84184}, !- Outside Boundary Condition Object
  NoSun,                                  !- Sun Exposure
  NoWind,                                 !- Wind Exposure
  ,                                       !- View Factor to Ground
  ,                                       !- Number of Vertices
  10.8719378621266, -3.6576, 0,           !- X,Y,Z Vertex 1 {m}