
OS:Version,
  {b1b49d52-e920-43bc-a016-e4f6ee425ee8}, !- Handle
  3.2.1;                                  !- Version Identifier

OS:Building,
  {f6a902ab-65f6-4e5f-b84e-8be59a1f8afb}, !- Handle
  Building 1,                             !- Name
  ,                                       !- Building Sector Type
  135,                                    !- North Axis {deg}
  ,                                       !- Nominal Floor to Floor Height {m}
  ,                                       !- Space Type Name
  ,                                       !- Default Construction Set Name
  ,                                       !- Default Schedule Set Name
  1,                                      !- Standards Number of Stories
  1,                                      !- Standards Number of Above Ground Stories
  ,                                       !- Standards Template
  singlefamilydetached,                   !- Standards Building Type
  1;                                      !- Standards Number of Living Units

OS:Facility,
  {364ad196-fa56-49ff-ade9-2fba157d315d}; !- Handle

OS:Site,
  {d65966d8-4342-4f67-8678-b814d601c706}, !- Handle
  Burlington International Ap_VT_USA,     !- Name
  44.47,                                  !- Latitude {deg}
  -73.15,                                 !- Longitude {deg}
  -5,                                     !- Time Zone {hr}
  101,                                    !- Elevation {m}
  Suburbs;                                !- Terrain

OS:SimulationControl,
  {3cd160bc-4b8f-4579-aa5f-ae803afc939c}, !- Handle
  ,                                       !- Do Zone Sizing Calculation
  ,                                       !- Do System Sizing Calculation
  ,                                       !- Do Plant Sizing Calculation
  No;                                     !- Run Simulation for Sizing Periods

OS:Sizing:Parameters,
  {245ed9de-025c-4eb5-a531-f071a526ecdd}, !- Handle
  1.25,                                   !- Heating Sizing Factor
  1.15;                                   !- Cooling Sizing Factor

OS:Timestep,
  {faffea65-ce3a-445d-b1a3-01e048cec1dc}, !- Handle
  4;                                      !- Number of Timesteps per Hour

OS:ShadowCalculation,
  {728fb8e3-2486-4c3a-a5d7-5ef2f170ecdd}, !- Handle
  PolygonClipping,                        !- Shading Calculation Method
  ,                                       !- Shading Calculation Update Frequency Method
  20,                                     !- Shading Calculation Update Frequency
  200,                                    !- Maximum Figures in Shadow Overlap Calculations
  ,                                       !- Polygon Clipping Algorithm
  512,                                    !- Pixel Counting Resolution
  DetailedSkyDiffuseModeling,             !- Sky Diffuse Modeling Algorithm
  No,                                     !- Output External Shading Calculation Results
  No,                                     !- Disable Self-Shading Within Shading Zone Groups
  No;                                     !- Disable Self-Shading From Shading Zone Groups to Other Zones

OS:HeatBalanceAlgorithm,
  {e1940cbb-73e2-43c5-b36e-454b250b997c}, !- Handle
  ConductionTransferFunction,             !- Algorithm
  200;                                    !- Surface Temperature Upper Limit {C}

OS:RunPeriod,
  {773c3c93-1bfe-4de4-9d35-a86d1e4c8bd8}, !- Handle
  Run Period 1,                           !- Name
  1,                                      !- Begin Month
  1,                                      !- Begin Day of Month
  12,                                     !- End Month
  31,                                     !- End Day of Month
  ,                                       !- Use Weather File Holidays and Special Days
  ,                                       !- Use Weather File Daylight Saving Period
  ,                                       !- Apply Weekend Holiday Rule
  ,                                       !- Use Weather File Rain Indicators
  ,                                       !- Use Weather File Snow Indicators
  ;                                       !- Number of Times Runperiod to be Repeated

OS:LifeCycleCost:Parameters,
  {2717443a-5c95-4602-b132-1772b1aee1ce}, !- Handle
  ,                                       !- Analysis Type
  ,                                       !- Discounting Convention
  ,                                       !- Inflation Approach
  ,                                       !- Real Discount Rate
  ,                                       !- Nominal Discount Rate
  ,                                       !- Inflation
  ,                                       !- Base Date Month
  ,                                       !- Base Date Year
  ,                                       !- Service Date Month
  ,                                       !- Service Date Year
  ;                                       !- Length of Study Period in Years

OS:SurfaceConvectionAlgorithm:Outside,
  {426b3bdb-d717-48ac-a02a-96316b341610}, !- Handle
  DOE-2;                                  !- Algorithm

OS:SurfaceConvectionAlgorithm:Inside,
  {aa5d0d23-6433-49e2-9d78-6306fead2595}, !- Handle
  TARP;                                   !- Algorithm

OS:ZoneCapacitanceMultiplier:ResearchSpecial,
  {6f1080d1-e860-4346-a4e6-d4c3b393a727}, !- Handle
  ,                                       !- Temperature Capacity Multiplier
  15,                                     !- Humidity Capacity Multiplier
  ;                                       !- Carbon Dioxide Capacity Multiplier

OS:YearDescription,
  {021688ca-689a-4826-b0cc-ab68b65853b2}, !- Handle
  2018,                                   !- Calendar Year
  ,                                       !- Day of Week for Start Day
  ;                                       !- Is Leap Year

OS:AdditionalProperties,
  {09bc9722-5d1d-4fb9-9beb-ee0ed2923316}, !- Handle
  {f6a902ab-65f6-4e5f-b84e-8be59a1f8afb}, !- Object Name
  Building ID,                            !- Feature Name 1
  Integer,                                !- Feature Data Type 1
  546814,                                 !- Feature Value 1
  num_occupants,                          !- Feature Name 2
  Integer,                                !- Feature Data Type 2
  2,                                      !- Feature Value 2
  Schedules Path,                         !- Feature Name 3
  String,                                 !- Feature Data Type 3
  /var/simdata/openstudio/run/schedules.csv, !- Feature Value 3
  Total Units Modeled,                    !- Feature Name 4
  Integer,                                !- Feature Data Type 4
  1,                                      !- Feature Value 4
  has_water_heater_flue,                  !- Feature Name 5
  Boolean,                                !- Feature Data Type 5
  true,                                   !- Feature Value 5
  has_hvac_flue,                          !- Feature Name 6
  Boolean,                                !- Feature Data Type 6
  true,                                   !- Feature Value 6
  has_fireplace_chimney,                  !- Feature Name 7
  Boolean,                                !- Feature Data Type 7
  false;                                  !- Feature Value 7

OS:WeatherFile,
  {ec0b17e6-89cc-49bf-a570-6efbde6f2db1}, !- Handle
  Burlington International Ap,            !- City
  VT,                                     !- State Province Region
  USA,                                    !- Country
  TMY3,                                   !- Data Source
  726170,                                 !- WMO Number
  44.47,                                  !- Latitude {deg}
  -73.15,                                 !- Longitude {deg}
  -5,                                     !- Time Zone {hr}
  101,                                    !- Elevation {m}
  /weather/G5000070.epw,                  !- Url
  628C5698;                               !- Checksum

OS:AdditionalProperties,
  {da88a1fa-3068-4a2e-adb8-cdafe76ac2ee}, !- Handle
  {ec0b17e6-89cc-49bf-a570-6efbde6f2db1}, !- Object Name
  EPWHeaderCity,                          !- Feature Name 1
  String,                                 !- Feature Data Type 1
  Burlington International Ap,            !- Feature Value 1
  EPWHeaderState,                         !- Feature Name 2
  String,                                 !- Feature Data Type 2
  VT,                                     !- Feature Value 2
  EPWHeaderCountry,                       !- Feature Name 3
  String,                                 !- Feature Data Type 3
  USA,                                    !- Feature Value 3
  EPWHeaderDataSource,                    !- Feature Name 4
  String,                                 !- Feature Data Type 4
  TMY3,                                   !- Feature Value 4
  EPWHeaderStation,                       !- Feature Name 5
  String,                                 !- Feature Data Type 5
  726170,                                 !- Feature Value 5
  EPWHeaderLatitude,                      !- Feature Name 6
  Double,                                 !- Feature Data Type 6
  44.469999999999999,                     !- Feature Value 6
  EPWHeaderLongitude,                     !- Feature Name 7
  Double,                                 !- Feature Data Type 7
  -73.150000000000006,                    !- Feature Value 7
  EPWHeaderTimezone,                      !- Feature Name 8
  Double,                                 !- Feature Data Type 8
  -5,                                     !- Feature Value 8
  EPWHeaderAltitude,                      !- Feature Name 9
  Double,                                 !- Feature Data Type 9
  331.36482939632543,                     !- Feature Value 9
  EPWHeaderLocalPressure,                 !- Feature Name 10
  Double,                                 !- Feature Data Type 10
  0.98787982255594464,                    !- Feature Value 10
  EPWHeaderRecordsPerHour,                !- Feature Name 11
  Double,                                 !- Feature Data Type 11
  1,                                      !- Feature Value 11
  EPWDataAnnualAvgDrybulb,                !- Feature Name 12
  Double,                                 !- Feature Data Type 12
  46.159054794520515,                     !- Feature Value 12
  EPWDataAnnualMinDrybulb,                !- Feature Name 13
  Double,                                 !- Feature Data Type 13
  -18.039999999999999,                    !- Feature Value 13
  EPWDataAnnualMaxDrybulb,                !- Feature Name 14
  Double,                                 !- Feature Data Type 14
  98.960000000000008,                     !- Feature Value 14
  EPWDataCDD50F,                          !- Feature Name 15
  Double,                                 !- Feature Data Type 15
  2312.4525000000003,                     !- Feature Value 15
  EPWDataCDD65F,                          !- Feature Name 16
  Double,                                 !- Feature Data Type 16
  421.72500000000031,                     !- Feature Value 16
  EPWDataHDD50F,                          !- Feature Name 17
  Double,                                 !- Feature Data Type 17
  3714.3974999999978,                     !- Feature Value 17
  EPWDataHDD65F,                          !- Feature Name 18
  Double,                                 !- Feature Data Type 18
  7298.6700000000001,                     !- Feature Value 18
  EPWDataAnnualAvgWindspeed,              !- Feature Name 19
  Double,                                 !- Feature Data Type 19
  4.2093721461184028,                     !- Feature Value 19
  EPWDataMonthlyAvgDrybulbs,              !- Feature Name 20
  String,                                 !- Feature Data Type 20
  19.007096774193542&#4421.939553571428576&#4431.09637096774194&#4446.09875&#4456.87459677419351&#4466.70225000000002&#4469.90112903225807&#4467.61096774193553&#4459.15749999999998&#4447.586693548387096&#4437.000249999999994&#4429.37427419354839, !- Feature Value 20
  EPWDataGroundMonthlyTemps,              !- Feature Name 21
  String,                                 !- Feature Data Type 21
  36.935898785308154&#4433.04339899072181&#4432.7316736478366&#4434.578863693096196&#4441.99430238960366&#4449.375196826868034&#4455.774037837617186&#4459.82754624163937&#4460.17191404490012&#4456.87506626000578&#4450.6393994518848&#4443.48492079304418, !- Feature Value 21
  EPWDataWSF,                             !- Feature Name 22
  Double,                                 !- Feature Data Type 22
  0.60999999999999999,                    !- Feature Value 22
  EPWDataMonthlyAvgDailyHighDrybulbs,     !- Feature Name 23
  String,                                 !- Feature Data Type 23
  26.303870967741936&#4430.174285714285713&#4438.288387096774194&#4455.436&#4466.18838709677418&#4475.73399999999998&#4479.5083870967742&#4476.93612903225807&#4466.38&#4455.527741935483874&#4442.47&#4435.303870967741936, !- Feature Value 23
  EPWDataMonthlyAvgDailyLowDrybulbs,      !- Feature Name 24
  String,                                 !- Feature Data Type 24
  10.051612903225806&#4411.89142857142857&#4423.412258064516127&#4435.102000000000004&#4446.16193548387097&#4456.300000000000004&#4459.25548387096774&#4458.0883870967742&#4451.836&#4438.329032258064515&#4431.022&#4422.181290322580644, !- Feature Value 24
  EPWDesignHeatingDrybulb,                !- Feature Name 25
  Double,                                 !- Feature Data Type 25
  -3.4600000000000009,                    !- Feature Value 25
  EPWDesignHeatingWindspeed,              !- Feature Name 26
  Double,                                 !- Feature Data Type 26
  11.5,                                   !- Feature Value 26
  EPWDesignCoolingDrybulb,                !- Feature Name 27
  Double,                                 !- Feature Data Type 27
  85.280000000000001,                     !- Feature Value 27
  EPWDesignCoolingWetbulb,                !- Feature Name 28
  Double,                                 !- Feature Data Type 28
  69.620000000000005,                     !- Feature Value 28
  EPWDesignCoolingHumidityRatio,          !- Feature Name 29
  Double,                                 !- Feature Data Type 29
  0.011971942596874259,                   !- Feature Value 29
  EPWDesignCoolingWindspeed,              !- Feature Name 30
  Double,                                 !- Feature Data Type 30
  4.5,                                    !- Feature Value 30
  EPWDesignDailyTemperatureRange,         !- Feature Name 31
  Double,                                 !- Feature Data Type 31
  19.259999999999998,                     !- Feature Value 31
  EPWDesignDehumidDrybulb,                !- Feature Name 32
  Double,                                 !- Feature Data Type 32
  75.560000000000002,                     !- Feature Value 32
  EPWDesignDehumidHumidityRatio,          !- Feature Name 33
  Double,                                 !- Feature Data Type 33
  0.014690657683993896,                   !- Feature Value 33
  EPWDesignCoolingDirectNormal,           !- Feature Name 34
  Double,                                 !- Feature Data Type 34
  818,                                    !- Feature Value 34
  EPWDesignCoolingDiffuseHorizontal,      !- Feature Name 35
  Double,                                 !- Feature Data Type 35
  243;                                    !- Feature Value 35

OS:ClimateZones,
  {9ed295a9-7a81-41c9-b40f-751a7ed26dfe}, !- Handle
  Building America,                       !- Climate Zone Institution Name 1
  ,                                       !- Climate Zone Document Name 1
  0,                                      !- Climate Zone Document Year 1
  Cold;                                   !- Climate Zone Value 1

OS:Site:WaterMainsTemperature,
  {bd7e4708-71e3-4a06-8a73-ff315d62e5e8}, !- Handle
  Correlation,                            !- Calculation Method
  ,                                       !- Temperature Schedule Name
  7.8661415525114,                        !- Annual Average Outdoor Air Temperature {C}
  28.2744623655914;                       !- Maximum Difference In Monthly Average Outdoor Air Temperatures {deltaC}

OS:RunPeriodControl:DaylightSavingTime,
  {7a903696-de45-422c-aea3-6db24e33c9ee}, !- Handle
  3/10,                                   !- Start Date
  11/3;                                   !- End Date

OS:Site:GroundTemperature:Deep,
  {473ef2ad-f065-46e7-b54a-d943e784d43b}, !- Handle
  7.8661415525114,                        !- January Deep Ground Temperature {C}
  7.8661415525114,                        !- February Deep Ground Temperature {C}
  7.8661415525114,                        !- March Deep Ground Temperature {C}
  7.8661415525114,                        !- April Deep Ground Temperature {C}
  7.8661415525114,                        !- May Deep Ground Temperature {C}
  7.8661415525114,                        !- June Deep Ground Temperature {C}
  7.8661415525114,                        !- July Deep Ground Temperature {C}
  7.8661415525114,                        !- August Deep Ground Temperature {C}
  7.8661415525114,                        !- September Deep Ground Temperature {C}
  7.8661415525114,                        !- October Deep Ground Temperature {C}
  7.8661415525114,                        !- November Deep Ground Temperature {C}
  7.8661415525114;                        !- December Deep Ground Temperature {C}

OS:ThermalZone,
  {849af80f-d2bb-4c4a-820e-8f3ad831e8be}, !- Handle
  living zone,                            !- Name
  ,                                       !- Multiplier
  ,                                       !- Ceiling Height {m}
  ,                                       !- Volume {m3}
  ,                                       !- Floor Area {m2}
  ,                                       !- Zone Inside Convection Algorithm
  ,                                       !- Zone Outside Convection Algorithm
  ,                                       !- Zone Conditioning Equipment List Name
  {ba2e221e-952d-4e8f-a928-d6b037c349f0}, !- Zone Air Inlet Port List
  {d1254b67-0194-492f-8387-44568425d94e}, !- Zone Air Exhaust Port List
  {88605a1b-d45e-4cd7-bc9c-30e9e890007f}, !- Zone Air Node Name
  {cc2b7cd9-0333-4e32-8ab0-0c90b93ded57}, !- Zone Return Air Port List
  ,                                       !- Primary Daylighting Control Name
  ,                                       !- Fraction of Zone Controlled by Primary Daylighting Control
  ,                                       !- Secondary Daylighting Control Name
  ,                                       !- Fraction of Zone Controlled by Secondary Daylighting Control
  ,                                       !- Illuminance Map Name
  ,                                       !- Group Rendering Name
  {15efd70a-b12e-43d3-ab9a-93839b1df1d3}, !- Thermostat Name
  No;                                     !- Use Ideal Air Loads

OS:Node,
  {db54234a-4d03-4c83-a325-189c2091627d}, !- Handle
  Node 1,                                 !- Name
  {88605a1b-d45e-4cd7-bc9c-30e9e890007f}, !- Inlet Port
  ;                                       !- Outlet Port

OS:Connection,
  {88605a1b-d45e-4cd7-bc9c-30e9e890007f}, !- Handle
  {849af80f-d2bb-4c4a-820e-8f3ad831e8be}, !- Source Object
  11,                                     !- Outlet Port
  {db54234a-4d03-4c83-a325-189c2091627d}, !- Target Object
  2;                                      !- Inlet Port

OS:PortList,
  {ba2e221e-952d-4e8f-a928-d6b037c349f0}, !- Handle
  {849af80f-d2bb-4c4a-820e-8f3ad831e8be}, !- HVAC Component
  {2b08f8d6-c34a-43a7-97e9-9e7182817545}; !- Port 1

OS:PortList,
  {d1254b67-0194-492f-8387-44568425d94e}, !- Handle
  {849af80f-d2bb-4c4a-820e-8f3ad831e8be}; !- HVAC Component

OS:PortList,
  {cc2b7cd9-0333-4e32-8ab0-0c90b93ded57}, !- Handle
  {849af80f-d2bb-4c4a-820e-8f3ad831e8be}, !- HVAC Component
  {a03dc6c7-dda9-4bbc-a04a-afd97d5819fb}; !- Port 1

OS:Sizing:Zone,
  {c2b9c8e3-a413-4ab0-9ece-bc3c30d64ebd}, !- Handle
  {849af80f-d2bb-4c4a-820e-8f3ad831e8be}, !- Zone or ZoneList Name
  SupplyAirTemperature,                   !- Zone Cooling Design Supply Air Temperature Input Method
  14,                                     !- Zone Cooling Design Supply Air Temperature {C}
  11.11,                                  !- Zone Cooling Design Supply Air Temperature Difference {deltaC}
  SupplyAirTemperature,                   !- Zone Heating Design Supply Air Temperature Input Method
  40,                                     !- Zone Heating Design Supply Air Temperature {C}
  11.11,                                  !- Zone Heating Design Supply Air Temperature Difference {deltaC}
  0.0085,                                 !- Zone Cooling Design Supply Air Humidity Ratio {kg-H2O/kg-air}
  0.008,                                  !- Zone Heating Design Supply Air Humidity Ratio {kg-H2O/kg-air}
  ,                                       !- Zone Heating Sizing Factor
  ,                                       !- Zone Cooling Sizing Factor
  DesignDay,                              !- Cooling Design Air Flow Method
  ,                                       !- Cooling Design Air Flow Rate {m3/s}
  ,                                       !- Cooling Minimum Air Flow per Zone Floor Area {m3/s-m2}
  ,                                       !- Cooling Minimum Air Flow {m3/s}
  ,                                       !- Cooling Minimum Air Flow Fraction
  DesignDay,                              !- Heating Design Air Flow Method
  ,                                       !- Heating Design Air Flow Rate {m3/s}
  ,                                       !- Heating Maximum Air Flow per Zone Floor Area {m3/s-m2}
  ,                                       !- Heating Maximum Air Flow {m3/s}
  ,                                       !- Heating Maximum Air Flow Fraction
  No,                                     !- Account for Dedicated Outdoor Air System
  NeutralSupplyAir,                       !- Dedicated Outdoor Air System Control Strategy
  autosize,                               !- Dedicated Outdoor Air Low Setpoint Temperature for Design {C}
  autosize;                               !- Dedicated Outdoor Air High Setpoint Temperature for Design {C}

OS:ZoneHVAC:EquipmentList,
  {0f63f8a1-e106-441b-8049-b280daed778d}, !- Handle
  Zone HVAC Equipment List 1,             !- Name
  {849af80f-d2bb-4c4a-820e-8f3ad831e8be}, !- Thermal Zone
  SequentialLoad,                         !- Load Distribution Scheme
  {9b01e10e-8bad-444e-a18d-2d8ffc63af56}, !- Zone Equipment 1
  1,                                      !- Zone Equipment Cooling Sequence 1
  1,                                      !- Zone Equipment Heating or No-Load Sequence 1
  ,                                       !- Zone Equipment Sequential Cooling Fraction Schedule Name 1
  ;                                       !- Zone Equipment Sequential Heating Fraction Schedule Name 1

OS:Space,
  {d52c2bc4-f5c3-4029-9856-1119e5e78287}, !- Handle
  living space,                           !- Name
  {c10cbd7c-689c-49b1-82c0-3d4b891997a3}, !- Space Type Name
  ,                                       !- Default Construction Set Name
  ,                                       !- Default Schedule Set Name
  -0,                                     !- Direction of Relative North {deg}
  0,                                      !- X Origin {m}
  0,                                      !- Y Origin {m}
  0,                                      !- Z Origin {m}
  ,                                       !- Building Story Name
  {849af80f-d2bb-4c4a-820e-8f3ad831e8be}, !- Thermal Zone Name
  ,                                       !- Part of Total Floor Area
  ,                                       !- Design Specification Outdoor Air Object Name
  {85b3e636-3a4f-4ec5-81f9-1bac3dfe05dc}; !- Building Unit Name

OS:Surface,
  {383391dd-f420-43dd-b661-a8867a983778}, !- Handle
  Surface 1,                              !- Name
  Floor,                                  !- Surface Type
  {fb0201ac-4c77-4a84-afa0-2e0e9e49899d}, !- Construction Name
  {d52c2bc4-f5c3-4029-9856-1119e5e78287}, !- Space Name
  Surface,                                !- Outside Boundary Condition
  {d8b767bd-63d9-49d7-a217-0d1523f13f98}, !- Outside Boundary Condition Object
  NoSun,                                  !- Sun Exposure
  NoWind,                                 !- Wind Exposure
  ,                                       !- View Factor to Ground
  ,                                       !- Number of Vertices
  0, 0, 0,                                !- X,Y,Z Vertex 1 {m}
  0, 6.75850042539024, 0,                 !- X,Y,Z Vertex 2 {m}
  12.1653007657024, 6.75850042539024, 0,  !- X,Y,Z Vertex 3 {m}
  12.1653007657024, 0, 0;                 !- X,Y,Z Vertex 4 {m}

OS:Surface,
  {1ef86ab3-72dc-4fa2-9ac7-f1ba742115ae}, !- Handle
  Surface 2,                              !- Name
  Wall,                                   !- Surface Type
  {2f29c4e7-f0df-4b1c-b1c6-c809fb03bcfd}, !- Construction Name
  {d52c2bc4-f5c3-4029-9856-1119e5e78287}, !- Space Name
  Outdoors,                               !- Outside Boundary Condition
  ,                                       !- Outside Boundary Condition Object
  SunExposed,                             !- Sun Exposure
  WindExposed,                            !- Wind Exposure
  ,                                       !- View Factor to Ground
  ,                                       !- Number of Vertices
  0, 6.75850042539024, 2.4384,            !- X,Y,Z Vertex 1 {m}
  0, 6.75850042539024, 0,                 !- X,Y,Z Vertex 2 {m}
  0, 0, 0,                                !- X,Y,Z Vertex 3 {m}
  0, 0, 2.4384;                           !- X,Y,Z Vertex 4 {m}

OS:Surface,
  {31b715b1-d167-4985-9b17-3977fd98751f}, !- Handle
  Surface 3,                              !- Name
  Wall,                                   !- Surface Type
  {2f29c4e7-f0df-4b1c-b1c6-c809fb03bcfd}, !- Construction Name
  {d52c2bc4-f5c3-4029-9856-1119e5e78287}, !- Space Name
  Outdoors,                               !- Outside Boundary Condition
  ,                                       !- Outside Boundary Condition Object
  SunExposed,                             !- Sun Exposure
  WindExposed,                            !- Wind Exposure
  ,                                       !- View Factor to Ground
  ,                                       !- Number of Vertices
  12.1653007657024, 6.75850042539024, 2.4384, !- X,Y,Z Vertex 1 {m}
  12.1653007657024, 6.75850042539024, 0,  !- X,Y,Z Vertex 2 {m}
  0, 6.75850042539024, 0,                 !- X,Y,Z Vertex 3 {m}
  0, 6.75850042539024, 2.4384;            !- X,Y,Z Vertex 4 {m}

OS:Surface,
  {4ebb40ef-2044-4085-ab2c-c82236bbe309}, !- Handle
  Surface 4,                              !- Name
  Wall,                                   !- Surface Type
  {2f29c4e7-f0df-4b1c-b1c6-c809fb03bcfd}, !- Construction Name
  {d52c2bc4-f5c3-4029-9856-1119e5e78287}, !- Space Name
  Outdoors,                               !- Outside Boundary Condition
  ,                                       !- Outside Boundary Condition Object
  SunExposed,                             !- Sun Exposure
  WindExposed,                            !- Wind Exposure
  ,                                       !- View Factor to Ground
  ,                                       !- Number of Vertices
  12.1653007657024, 0, 2.4384,            !- X,Y,Z Vertex 1 {m}
  12.1653007657024, 0, 0,                 !- X,Y,Z Vertex 2 {m}
  12.1653007657024, 6.75850042539024, 0,  !- X,Y,Z Vertex 3 {m}
  12.1653007657024, 6.75850042539024, 2.4384; !- X,Y,Z Vertex 4 {m}

OS:Surface,
  {cfbfcd43-53bd-40f0-96c5-a95802d83a6a}, !- Handle
  Surface 5,                              !- Name
  Wall,                                   !- Surface Type
  {2f29c4e7-f0df-4b1c-b1c6-c809fb03bcfd}, !- Construction Name
  {d52c2bc4-f5c3-4029-9856-1119e5e78287}, !- Space Name
  Outdoors,                               !- Outside Boundary Condition
  ,                                       !- Outside Boundary Condition Object
  SunExposed,                             !- Sun Exposure
  WindExposed,                            !- Wind Exposure
  ,                                       !- View Factor to Ground
  ,                                       !- Number of Vertices
  1.04865714285714, 0, -6.2067876616112e-08, !- X,Y,Z Vertex 1 {m}
  12.1653007657024, 0, 0,                 !- X,Y,Z Vertex 2 {m}
  12.1653007657024, 0, 2.4384,            !- X,Y,Z Vertex 3 {m}
  1.04865714285714, 0, 2.43840006206788;  !- X,Y,Z Vertex 4 {m}

OS:Surface,
  {f929c2d4-0e6b-4675-874d-f7ccf1223c2b}, !- Handle
  Surface 6,                              !- Name
  RoofCeiling,                            !- Surface Type
  {72fe099c-650d-47c1-8433-b2bb44d7c495}, !- Construction Name
  {d52c2bc4-f5c3-4029-9856-1119e5e78287}, !- Space Name
  Surface,                                !- Outside Boundary Condition
  {7c18105c-57e4-42bf-b0db-e99dc906340a}, !- Outside Boundary Condition Object
  NoSun,                                  !- Sun Exposure
  NoWind,                                 !- Wind Exposure
  ,                                       !- View Factor to Ground
  ,                                       !- Number of Vertices
  12.1653007657024, 0, 2.4384,            !- X,Y,Z Vertex 1 {m}
  12.1653007657024, 6.75850042539024, 2.4384, !- X,Y,Z Vertex 2 {m}
  0, 6.75850042539024, 2.4384,            !- X,Y,Z Vertex 3 {m}
  0, 0, 2.4384;                           !- X,Y,Z Vertex 4 {m}

OS:SpaceType,
  {c10cbd7c-689c-49b1-82c0-3d4b891997a3}, !- Handle
  Space Type 1,                           !- Name
  ,                                       !- Default Construction Set Name
  ,                                       !- Default Schedule Set Name